taskid: 13 hostname: mljc-spring
Quilting with   1 groups of   0 I/O tasks.
 Ntasks in X            3 , ntasks in Y            5
  Domain # 1: dx =    50.000 m
   For domain            1 , the domain size is too small for this many processors, or the decomposition aspect ratio is poor.
   Minimum decomposed computational patch size, either x-dir or y-dir, is 10 grid cells.
  e_we =    43, nproc_x =    3, with cell width in x-direction =   14
  e_sn =    43, nproc_y =    5, with cell width in y-direction =    8
  --- WARNING: Reduce the MPI rank count, or redistribute the tasks.
WRF V4.2 MODEL
No git found or not a git repository, git commit version not available.
 *************************************
 Parent domain
 ids,ide,jds,jde            1          43           1          43
 ims,ime,jms,jme            8          35          28          48
 ips,ipe,jps,jpe           15          28          35          43
 *************************************
DYNAMICS OPTION: Eulerian Mass Coordinate
   alloc_space_field: domain            1 ,              23552492  bytes allocated
  med_initialdata_input: calling input_input
   Input data is acceptable to use:
 CURRENT DATE          = 2006-01-01_09:00:00
 SIMULATION START DATE = 2006-01-01_09:00:00
Max map factor in domain 1 =  0.00. Scale the dt in the model accordingly.
FIRE:fire_driver_em_init: FIRE initialization start
FIRE:Using ideal ignition coordinates, m from the lower left domain corner
 Tile Strategy is not specified. Assuming 1D-Y
WRF TILE   1 IS     15 IE     28 JS     35 JE     43
WRF NUMBER OF TILES =   1
FIRE:Time       0.500 s Average wind           0.124E+01 m/s
FIRE:Time       0.500 s Maximum wind           0.124E+01 m/s
FIRE:Time       0.500 s Fire area              0.000E+00 m^2
FIRE:Time       0.500 s Heat output            0.000E+00 W
FIRE:Time       0.500 s Max heat flux          0.000E+00 W/m^2
FIRE:Time       0.500 s Latent heat output     0.000E+00 W
FIRE:Time       0.500 s Max latent heat flux   0.000E+00 W/m^2
FIRE:Time       1.000 s Average wind           0.124E+01 m/s
FIRE:Time       1.000 s Maximum wind           0.124E+01 m/s
FIRE:Time       1.000 s Fire area              0.000E+00 m^2
FIRE:Time       1.000 s Heat output            0.000E+00 W
FIRE:Time       1.000 s Max heat flux          0.000E+00 W/m^2
FIRE:Time       1.000 s Latent heat output     0.000E+00 W
FIRE:Time       1.000 s Max latent heat flux   0.000E+00 W/m^2
FIRE:Time       1.500 s Average wind           0.124E+01 m/s
FIRE:Time       1.500 s Maximum wind           0.124E+01 m/s
FIRE:Time       1.500 s Fire area              0.000E+00 m^2
FIRE:Time       1.500 s Heat output            0.000E+00 W
FIRE:Time       1.500 s Max heat flux          0.000E+00 W/m^2
FIRE:Time       1.500 s Latent heat output     0.000E+00 W
FIRE:Time       1.500 s Max latent heat flux   0.000E+00 W/m^2
FIRE:Time       2.000 s Average wind           0.124E+01 m/s
FIRE:Time       2.000 s Maximum wind           0.124E+01 m/s
FIRE:Time       2.000 s Fire area              0.000E+00 m^2
FIRE:Time       2.000 s Heat output            0.000E+00 W
FIRE:Time       2.000 s Max heat flux          0.000E+00 W/m^2
FIRE:Time       2.000 s Latent heat output     0.000E+00 W
FIRE:Time       2.000 s Max latent heat flux   0.000E+00 W/m^2
FIRE:Time       2.500 s Average wind           0.124E+01 m/s
FIRE:Time       2.500 s Maximum wind           0.124E+01 m/s
FIRE:Time       2.500 s Fire area              0.000E+00 m^2
FIRE:Time       2.500 s Heat output            0.000E+00 W
FIRE:Time       2.500 s Max heat flux          0.000E+00 W/m^2
FIRE:Time       2.500 s Latent heat output     0.000E+00 W
FIRE:Time       2.500 s Max latent heat flux   0.000E+00 W/m^2
FIRE:Time       3.000 s Average wind           0.124E+01 m/s
FIRE:Time       3.000 s Maximum wind           0.124E+01 m/s
FIRE:Time       3.000 s Fire area              0.000E+00 m^2
FIRE:Time       3.000 s Heat output            0.000E+00 W
FIRE:Time       3.000 s Max heat flux          0.000E+00 W/m^2
FIRE:Time       3.000 s Latent heat output     0.000E+00 W
FIRE:Time       3.000 s Max latent heat flux   0.000E+00 W/m^2
FIRE:Time       3.500 s Average wind           0.124E+01 m/s
FIRE:Time       3.500 s Maximum wind           0.124E+01 m/s
FIRE:Time       3.500 s Fire area              0.000E+00 m^2
FIRE:Time       3.500 s Heat output            0.000E+00 W
FIRE:Time       3.500 s Max heat flux          0.000E+00 W/m^2
FIRE:Time       3.500 s Latent heat output     0.000E+00 W
FIRE:Time       3.500 s Max latent heat flux   0.000E+00 W/m^2
FIRE:Time       4.000 s Average wind           0.124E+01 m/s
FIRE:Time       4.000 s Maximum wind           0.124E+01 m/s
FIRE:Time       4.000 s Fire area              0.000E+00 m^2
FIRE:Time       4.000 s Heat output            0.000E+00 W
FIRE:Time       4.000 s Max heat flux          0.000E+00 W/m^2
FIRE:Time       4.000 s Latent heat output     0.000E+00 W
FIRE:Time       4.000 s Max latent heat flux   0.000E+00 W/m^2
FIRE:Time       4.500 s Average wind           0.124E+01 m/s
FIRE:Time       4.500 s Maximum wind           0.124E+01 m/s
FIRE:Time       4.500 s Fire area              0.000E+00 m^2
FIRE:Time       4.500 s Heat output            0.000E+00 W
FIRE:Time       4.500 s Max heat flux          0.000E+00 W/m^2
FIRE:Time       4.500 s Latent heat output     0.000E+00 W
FIRE:Time       4.500 s Max latent heat flux   0.000E+00 W/m^2
FIRE:Time       5.000 s Average wind           0.124E+01 m/s
FIRE:Time       5.000 s Maximum wind           0.124E+01 m/s
FIRE:Time       5.000 s Fire area              0.000E+00 m^2
FIRE:Time       5.000 s Heat output            0.000E+00 W
FIRE:Time       5.000 s Max heat flux          0.000E+00 W/m^2
FIRE:Time       5.000 s Latent heat output     0.000E+00 W
FIRE:Time       5.000 s Max latent heat flux   0.000E+00 W/m^2
FIRE:Time       5.500 s Average wind           0.124E+01 m/s
FIRE:Time       5.500 s Maximum wind           0.124E+01 m/s
FIRE:Time       5.500 s Fire area              0.000E+00 m^2
FIRE:Time       5.500 s Heat output            0.000E+00 W
FIRE:Time       5.500 s Max heat flux          0.000E+00 W/m^2
FIRE:Time       5.500 s Latent heat output     0.000E+00 W
FIRE:Time       5.500 s Max latent heat flux   0.000E+00 W/m^2
FIRE:Time       6.000 s Average wind           0.124E+01 m/s
FIRE:Time       6.000 s Maximum wind           0.124E+01 m/s
FIRE:Time       6.000 s Fire area              0.000E+00 m^2
FIRE:Time       6.000 s Heat output            0.000E+00 W
FIRE:Time       6.000 s Max heat flux          0.000E+00 W/m^2
FIRE:Time       6.000 s Latent heat output     0.000E+00 W
FIRE:Time       6.000 s Max latent heat flux   0.000E+00 W/m^2
FIRE:Time       6.500 s Average wind           0.124E+01 m/s
FIRE:Time       6.500 s Maximum wind           0.124E+01 m/s
FIRE:Time       6.500 s Fire area              0.000E+00 m^2
FIRE:Time       6.500 s Heat output            0.000E+00 W
FIRE:Time       6.500 s Max heat flux          0.000E+00 W/m^2
FIRE:Time       6.500 s Latent heat output     0.000E+00 W
FIRE:Time       6.500 s Max latent heat flux   0.000E+00 W/m^2
FIRE:Time       7.000 s Average wind           0.124E+01 m/s
FIRE:Time       7.000 s Maximum wind           0.124E+01 m/s
FIRE:Time       7.000 s Fire area              0.000E+00 m^2
FIRE:Time       7.000 s Heat output            0.000E+00 W
FIRE:Time       7.000 s Max heat flux          0.000E+00 W/m^2
FIRE:Time       7.000 s Latent heat output     0.000E+00 W
FIRE:Time       7.000 s Max latent heat flux   0.000E+00 W/m^2
FIRE:Time       7.500 s Average wind           0.124E+01 m/s
FIRE:Time       7.500 s Maximum wind           0.124E+01 m/s
FIRE:Time       7.500 s Fire area              0.000E+00 m^2
FIRE:Time       7.500 s Heat output            0.000E+00 W
FIRE:Time       7.500 s Max heat flux          0.000E+00 W/m^2
FIRE:Time       7.500 s Latent heat output     0.000E+00 W
FIRE:Time       7.500 s Max latent heat flux   0.000E+00 W/m^2
FIRE:Time       8.000 s Average wind           0.124E+01 m/s
FIRE:Time       8.000 s Maximum wind           0.124E+01 m/s
FIRE:Time       8.000 s Fire area              0.000E+00 m^2
FIRE:Time       8.000 s Heat output            0.000E+00 W
FIRE:Time       8.000 s Max heat flux          0.000E+00 W/m^2
FIRE:Time       8.000 s Latent heat output     0.000E+00 W
FIRE:Time       8.000 s Max latent heat flux   0.000E+00 W/m^2
FIRE:Time       8.500 s Average wind           0.124E+01 m/s
FIRE:Time       8.500 s Maximum wind           0.124E+01 m/s
FIRE:Time       8.500 s Fire area              0.000E+00 m^2
FIRE:Time       8.500 s Heat output            0.000E+00 W
FIRE:Time       8.500 s Max heat flux          0.000E+00 W/m^2
FIRE:Time       8.500 s Latent heat output     0.000E+00 W
FIRE:Time       8.500 s Max latent heat flux   0.000E+00 W/m^2
FIRE:Time       9.000 s Average wind           0.124E+01 m/s
FIRE:Time       9.000 s Maximum wind           0.124E+01 m/s
FIRE:Time       9.000 s Fire area              0.000E+00 m^2
FIRE:Time       9.000 s Heat output            0.000E+00 W
FIRE:Time       9.000 s Max heat flux          0.000E+00 W/m^2
FIRE:Time       9.000 s Latent heat output     0.000E+00 W
FIRE:Time       9.000 s Max latent heat flux   0.000E+00 W/m^2
FIRE:Time       9.500 s Average wind           0.124E+01 m/s
FIRE:Time       9.500 s Maximum wind           0.124E+01 m/s
FIRE:Time       9.500 s Fire area              0.000E+00 m^2
FIRE:Time       9.500 s Heat output            0.000E+00 W
FIRE:Time       9.500 s Max heat flux          0.000E+00 W/m^2
FIRE:Time       9.500 s Latent heat output     0.000E+00 W
FIRE:Time       9.500 s Max latent heat flux   0.000E+00 W/m^2
FIRE:Time      10.000 s Average wind           0.124E+01 m/s
FIRE:Time      10.000 s Maximum wind           0.124E+01 m/s
FIRE:Time      10.000 s Fire area              0.000E+00 m^2
FIRE:Time      10.000 s Heat output            0.000E+00 W
FIRE:Time      10.000 s Max heat flux          0.000E+00 W/m^2
FIRE:Time      10.000 s Latent heat output     0.000E+00 W
FIRE:Time      10.000 s Max latent heat flux   0.000E+00 W/m^2
FIRE:Time      10.500 s Average wind           0.124E+01 m/s
FIRE:Time      10.500 s Maximum wind           0.124E+01 m/s
FIRE:Time      10.500 s Fire area              0.000E+00 m^2
FIRE:Time      10.500 s Heat output            0.000E+00 W
FIRE:Time      10.500 s Max heat flux          0.000E+00 W/m^2
FIRE:Time      10.500 s Latent heat output     0.000E+00 W
FIRE:Time      10.500 s Max latent heat flux   0.000E+00 W/m^2
FIRE:Time      11.000 s Average wind           0.124E+01 m/s
FIRE:Time      11.000 s Maximum wind           0.124E+01 m/s
FIRE:Time      11.000 s Fire area              0.000E+00 m^2
FIRE:Time      11.000 s Heat output            0.000E+00 W
FIRE:Time      11.000 s Max heat flux          0.000E+00 W/m^2
FIRE:Time      11.000 s Latent heat output     0.000E+00 W
FIRE:Time      11.000 s Max latent heat flux   0.000E+00 W/m^2
FIRE:Time      11.500 s Average wind           0.124E+01 m/s
FIRE:Time      11.500 s Maximum wind           0.124E+01 m/s
FIRE:Time      11.500 s Fire area              0.000E+00 m^2
FIRE:Time      11.500 s Heat output            0.000E+00 W
FIRE:Time      11.500 s Max heat flux          0.000E+00 W/m^2
FIRE:Time      11.500 s Latent heat output     0.000E+00 W
FIRE:Time      11.500 s Max latent heat flux   0.000E+00 W/m^2
FIRE:Time      12.000 s Average wind           0.124E+01 m/s
FIRE:Time      12.000 s Maximum wind           0.124E+01 m/s
FIRE:Time      12.000 s Fire area              0.000E+00 m^2
FIRE:Time      12.000 s Heat output            0.000E+00 W
FIRE:Time      12.000 s Max heat flux          0.000E+00 W/m^2
FIRE:Time      12.000 s Latent heat output     0.000E+00 W
FIRE:Time      12.000 s Max latent heat flux   0.000E+00 W/m^2
FIRE:Time      12.500 s Average wind           0.124E+01 m/s
FIRE:Time      12.500 s Maximum wind           0.124E+01 m/s
FIRE:Time      12.500 s Fire area              0.000E+00 m^2
FIRE:Time      12.500 s Heat output            0.000E+00 W
FIRE:Time      12.500 s Max heat flux          0.000E+00 W/m^2
FIRE:Time      12.500 s Latent heat output     0.000E+00 W
FIRE:Time      12.500 s Max latent heat flux   0.000E+00 W/m^2
FIRE:Time      13.000 s Average wind           0.124E+01 m/s
FIRE:Time      13.000 s Maximum wind           0.124E+01 m/s
FIRE:Time      13.000 s Fire area              0.000E+00 m^2
FIRE:Time      13.000 s Heat output            0.000E+00 W
FIRE:Time      13.000 s Max heat flux          0.000E+00 W/m^2
FIRE:Time      13.000 s Latent heat output     0.000E+00 W
FIRE:Time      13.000 s Max latent heat flux   0.000E+00 W/m^2
FIRE:Time      13.500 s Average wind           0.124E+01 m/s
FIRE:Time      13.500 s Maximum wind           0.124E+01 m/s
FIRE:Time      13.500 s Fire area              0.000E+00 m^2
FIRE:Time      13.500 s Heat output            0.000E+00 W
FIRE:Time      13.500 s Max heat flux          0.000E+00 W/m^2
FIRE:Time      13.500 s Latent heat output     0.000E+00 W
FIRE:Time      13.500 s Max latent heat flux   0.000E+00 W/m^2
FIRE:Time      14.000 s Average wind           0.124E+01 m/s
FIRE:Time      14.000 s Maximum wind           0.124E+01 m/s
FIRE:Time      14.000 s Fire area              0.000E+00 m^2
FIRE:Time      14.000 s Heat output            0.000E+00 W
FIRE:Time      14.000 s Max heat flux          0.000E+00 W/m^2
FIRE:Time      14.000 s Latent heat output     0.000E+00 W
FIRE:Time      14.000 s Max latent heat flux   0.000E+00 W/m^2
FIRE:Time      14.500 s Average wind           0.124E+01 m/s
FIRE:Time      14.500 s Maximum wind           0.124E+01 m/s
FIRE:Time      14.500 s Fire area              0.000E+00 m^2
FIRE:Time      14.500 s Heat output            0.000E+00 W
FIRE:Time      14.500 s Max heat flux          0.000E+00 W/m^2
FIRE:Time      14.500 s Latent heat output     0.000E+00 W
FIRE:Time      14.500 s Max latent heat flux   0.000E+00 W/m^2
FIRE:Time      15.000 s Average wind           0.124E+01 m/s
FIRE:Time      15.000 s Maximum wind           0.124E+01 m/s
FIRE:Time      15.000 s Fire area              0.000E+00 m^2
FIRE:Time      15.000 s Heat output            0.000E+00 W
FIRE:Time      15.000 s Max heat flux          0.000E+00 W/m^2
FIRE:Time      15.000 s Latent heat output     0.000E+00 W
FIRE:Time      15.000 s Max latent heat flux   0.000E+00 W/m^2
FIRE:Time      15.500 s Average wind           0.124E+01 m/s
FIRE:Time      15.500 s Maximum wind           0.124E+01 m/s
FIRE:Time      15.500 s Fire area              0.000E+00 m^2
FIRE:Time      15.500 s Heat output            0.000E+00 W
FIRE:Time      15.500 s Max heat flux          0.000E+00 W/m^2
FIRE:Time      15.500 s Latent heat output     0.000E+00 W
FIRE:Time      15.500 s Max latent heat flux   0.000E+00 W/m^2
FIRE:Time      16.000 s Average wind           0.124E+01 m/s
FIRE:Time      16.000 s Maximum wind           0.124E+01 m/s
FIRE:Time      16.000 s Fire area              0.000E+00 m^2
FIRE:Time      16.000 s Heat output            0.000E+00 W
FIRE:Time      16.000 s Max heat flux          0.000E+00 W/m^2
FIRE:Time      16.000 s Latent heat output     0.000E+00 W
FIRE:Time      16.000 s Max latent heat flux   0.000E+00 W/m^2
FIRE:Time      16.500 s Average wind           0.124E+01 m/s
FIRE:Time      16.500 s Maximum wind           0.124E+01 m/s
FIRE:Time      16.500 s Fire area              0.000E+00 m^2
FIRE:Time      16.500 s Heat output            0.000E+00 W
FIRE:Time      16.500 s Max heat flux          0.000E+00 W/m^2
FIRE:Time      16.500 s Latent heat output     0.000E+00 W
FIRE:Time      16.500 s Max latent heat flux   0.000E+00 W/m^2
FIRE:Time      17.000 s Average wind           0.124E+01 m/s
FIRE:Time      17.000 s Maximum wind           0.124E+01 m/s
FIRE:Time      17.000 s Fire area              0.000E+00 m^2
FIRE:Time      17.000 s Heat output            0.000E+00 W
FIRE:Time      17.000 s Max heat flux          0.000E+00 W/m^2
FIRE:Time      17.000 s Latent heat output     0.000E+00 W
FIRE:Time      17.000 s Max latent heat flux   0.000E+00 W/m^2
FIRE:Time      17.500 s Average wind           0.124E+01 m/s
FIRE:Time      17.500 s Maximum wind           0.124E+01 m/s
FIRE:Time      17.500 s Fire area              0.000E+00 m^2
FIRE:Time      17.500 s Heat output            0.000E+00 W
FIRE:Time      17.500 s Max heat flux          0.000E+00 W/m^2
FIRE:Time      17.500 s Latent heat output     0.000E+00 W
FIRE:Time      17.500 s Max latent heat flux   0.000E+00 W/m^2
FIRE:Time      18.000 s Average wind           0.124E+01 m/s
FIRE:Time      18.000 s Maximum wind           0.124E+01 m/s
FIRE:Time      18.000 s Fire area              0.000E+00 m^2
FIRE:Time      18.000 s Heat output            0.000E+00 W
FIRE:Time      18.000 s Max heat flux          0.000E+00 W/m^2
FIRE:Time      18.000 s Latent heat output     0.000E+00 W
FIRE:Time      18.000 s Max latent heat flux   0.000E+00 W/m^2
FIRE:Time      18.500 s Average wind           0.124E+01 m/s
FIRE:Time      18.500 s Maximum wind           0.124E+01 m/s
FIRE:Time      18.500 s Fire area              0.000E+00 m^2
FIRE:Time      18.500 s Heat output            0.000E+00 W
FIRE:Time      18.500 s Max heat flux          0.000E+00 W/m^2
FIRE:Time      18.500 s Latent heat output     0.000E+00 W
FIRE:Time      18.500 s Max latent heat flux   0.000E+00 W/m^2
FIRE:Time      19.000 s Average wind           0.124E+01 m/s
FIRE:Time      19.000 s Maximum wind           0.124E+01 m/s
FIRE:Time      19.000 s Fire area              0.000E+00 m^2
FIRE:Time      19.000 s Heat output            0.000E+00 W
FIRE:Time      19.000 s Max heat flux          0.000E+00 W/m^2
FIRE:Time      19.000 s Latent heat output     0.000E+00 W
FIRE:Time      19.000 s Max latent heat flux   0.000E+00 W/m^2
FIRE:Time      19.500 s Average wind           0.124E+01 m/s
FIRE:Time      19.500 s Maximum wind           0.124E+01 m/s
FIRE:Time      19.500 s Fire area              0.000E+00 m^2
FIRE:Time      19.500 s Heat output            0.000E+00 W
FIRE:Time      19.500 s Max heat flux          0.000E+00 W/m^2
FIRE:Time      19.500 s Latent heat output     0.000E+00 W
FIRE:Time      19.500 s Max latent heat flux   0.000E+00 W/m^2
FIRE:Time      20.000 s Average wind           0.124E+01 m/s
FIRE:Time      20.000 s Maximum wind           0.124E+01 m/s
FIRE:Time      20.000 s Fire area              0.000E+00 m^2
FIRE:Time      20.000 s Heat output            0.000E+00 W
FIRE:Time      20.000 s Max heat flux          0.000E+00 W/m^2
FIRE:Time      20.000 s Latent heat output     0.000E+00 W
FIRE:Time      20.000 s Max latent heat flux   0.000E+00 W/m^2
FIRE:Time      20.500 s Average wind           0.124E+01 m/s
FIRE:Time      20.500 s Maximum wind           0.124E+01 m/s
FIRE:Time      20.500 s Fire area              0.000E+00 m^2
FIRE:Time      20.500 s Heat output            0.000E+00 W
FIRE:Time      20.500 s Max heat flux          0.000E+00 W/m^2
FIRE:Time      20.500 s Latent heat output     0.000E+00 W
FIRE:Time      20.500 s Max latent heat flux   0.000E+00 W/m^2
FIRE:Time      21.000 s Average wind           0.124E+01 m/s
FIRE:Time      21.000 s Maximum wind           0.124E+01 m/s
FIRE:Time      21.000 s Fire area              0.000E+00 m^2
FIRE:Time      21.000 s Heat output            0.000E+00 W
FIRE:Time      21.000 s Max heat flux          0.000E+00 W/m^2
FIRE:Time      21.000 s Latent heat output     0.000E+00 W
FIRE:Time      21.000 s Max latent heat flux   0.000E+00 W/m^2
FIRE:Time      21.500 s Average wind           0.124E+01 m/s
FIRE:Time      21.500 s Maximum wind           0.124E+01 m/s
FIRE:Time      21.500 s Fire area              0.000E+00 m^2
FIRE:Time      21.500 s Heat output            0.000E+00 W
FIRE:Time      21.500 s Max heat flux          0.000E+00 W/m^2
FIRE:Time      21.500 s Latent heat output     0.000E+00 W
FIRE:Time      21.500 s Max latent heat flux   0.000E+00 W/m^2
FIRE:Time      22.000 s Average wind           0.124E+01 m/s
FIRE:Time      22.000 s Maximum wind           0.124E+01 m/s
FIRE:Time      22.000 s Fire area              0.000E+00 m^2
FIRE:Time      22.000 s Heat output            0.000E+00 W
FIRE:Time      22.000 s Max heat flux          0.000E+00 W/m^2
FIRE:Time      22.000 s Latent heat output     0.000E+00 W
FIRE:Time      22.000 s Max latent heat flux   0.000E+00 W/m^2
FIRE:Time      22.500 s Average wind           0.124E+01 m/s
FIRE:Time      22.500 s Maximum wind           0.124E+01 m/s
FIRE:Time      22.500 s Fire area              0.000E+00 m^2
FIRE:Time      22.500 s Heat output            0.000E+00 W
FIRE:Time      22.500 s Max heat flux          0.000E+00 W/m^2
FIRE:Time      22.500 s Latent heat output     0.000E+00 W
FIRE:Time      22.500 s Max latent heat flux   0.000E+00 W/m^2
FIRE:Time      23.000 s Average wind           0.124E+01 m/s
FIRE:Time      23.000 s Maximum wind           0.124E+01 m/s
FIRE:Time      23.000 s Fire area              0.000E+00 m^2
FIRE:Time      23.000 s Heat output            0.000E+00 W
FIRE:Time      23.000 s Max heat flux          0.000E+00 W/m^2
FIRE:Time      23.000 s Latent heat output     0.000E+00 W
FIRE:Time      23.000 s Max latent heat flux   0.000E+00 W/m^2
FIRE:Time      23.500 s Average wind           0.124E+01 m/s
FIRE:Time      23.500 s Maximum wind           0.124E+01 m/s
FIRE:Time      23.500 s Fire area              0.000E+00 m^2
FIRE:Time      23.500 s Heat output            0.000E+00 W
FIRE:Time      23.500 s Max heat flux          0.000E+00 W/m^2
FIRE:Time      23.500 s Latent heat output     0.000E+00 W
FIRE:Time      23.500 s Max latent heat flux   0.000E+00 W/m^2
FIRE:Time      24.000 s Average wind           0.124E+01 m/s
FIRE:Time      24.000 s Maximum wind           0.124E+01 m/s
FIRE:Time      24.000 s Fire area              0.000E+00 m^2
FIRE:Time      24.000 s Heat output            0.000E+00 W
FIRE:Time      24.000 s Max heat flux          0.000E+00 W/m^2
FIRE:Time      24.000 s Latent heat output     0.000E+00 W
FIRE:Time      24.000 s Max latent heat flux   0.000E+00 W/m^2
FIRE:Time      24.500 s Average wind           0.124E+01 m/s
FIRE:Time      24.500 s Maximum wind           0.124E+01 m/s
FIRE:Time      24.500 s Fire area              0.000E+00 m^2
FIRE:Time      24.500 s Heat output            0.000E+00 W
FIRE:Time      24.500 s Max heat flux          0.000E+00 W/m^2
FIRE:Time      24.500 s Latent heat output     0.000E+00 W
FIRE:Time      24.500 s Max latent heat flux   0.000E+00 W/m^2
FIRE:Time      25.000 s Average wind           0.124E+01 m/s
FIRE:Time      25.000 s Maximum wind           0.124E+01 m/s
FIRE:Time      25.000 s Fire area              0.000E+00 m^2
FIRE:Time      25.000 s Heat output            0.000E+00 W
FIRE:Time      25.000 s Max heat flux          0.000E+00 W/m^2
FIRE:Time      25.000 s Latent heat output     0.000E+00 W
FIRE:Time      25.000 s Max latent heat flux   0.000E+00 W/m^2
FIRE:Time      25.500 s Average wind           0.124E+01 m/s
FIRE:Time      25.500 s Maximum wind           0.124E+01 m/s
FIRE:Time      25.500 s Fire area              0.000E+00 m^2
FIRE:Time      25.500 s Heat output            0.000E+00 W
FIRE:Time      25.500 s Max heat flux          0.000E+00 W/m^2
FIRE:Time      25.500 s Latent heat output     0.000E+00 W
FIRE:Time      25.500 s Max latent heat flux   0.000E+00 W/m^2
FIRE:Time      26.000 s Average wind           0.124E+01 m/s
FIRE:Time      26.000 s Maximum wind           0.124E+01 m/s
FIRE:Time      26.000 s Fire area              0.000E+00 m^2
FIRE:Time      26.000 s Heat output            0.000E+00 W
FIRE:Time      26.000 s Max heat flux          0.000E+00 W/m^2
FIRE:Time      26.000 s Latent heat output     0.000E+00 W
FIRE:Time      26.000 s Max latent heat flux   0.000E+00 W/m^2
FIRE:Time      26.500 s Average wind           0.124E+01 m/s
FIRE:Time      26.500 s Maximum wind           0.124E+01 m/s
FIRE:Time      26.500 s Fire area              0.000E+00 m^2
FIRE:Time      26.500 s Heat output            0.000E+00 W
FIRE:Time      26.500 s Max heat flux          0.000E+00 W/m^2
FIRE:Time      26.500 s Latent heat output     0.000E+00 W
FIRE:Time      26.500 s Max latent heat flux   0.000E+00 W/m^2
FIRE:Time      27.000 s Average wind           0.124E+01 m/s
FIRE:Time      27.000 s Maximum wind           0.124E+01 m/s
FIRE:Time      27.000 s Fire area              0.000E+00 m^2
FIRE:Time      27.000 s Heat output            0.000E+00 W
FIRE:Time      27.000 s Max heat flux          0.000E+00 W/m^2
FIRE:Time      27.000 s Latent heat output     0.000E+00 W
FIRE:Time      27.000 s Max latent heat flux   0.000E+00 W/m^2
FIRE:Time      27.500 s Average wind           0.124E+01 m/s
FIRE:Time      27.500 s Maximum wind           0.124E+01 m/s
FIRE:Time      27.500 s Fire area              0.000E+00 m^2
FIRE:Time      27.500 s Heat output            0.000E+00 W
FIRE:Time      27.500 s Max heat flux          0.000E+00 W/m^2
FIRE:Time      27.500 s Latent heat output     0.000E+00 W
FIRE:Time      27.500 s Max latent heat flux   0.000E+00 W/m^2
FIRE:Time      28.000 s Average wind           0.124E+01 m/s
FIRE:Time      28.000 s Maximum wind           0.124E+01 m/s
FIRE:Time      28.000 s Fire area              0.000E+00 m^2
FIRE:Time      28.000 s Heat output            0.000E+00 W
FIRE:Time      28.000 s Max heat flux          0.000E+00 W/m^2
FIRE:Time      28.000 s Latent heat output     0.000E+00 W
FIRE:Time      28.000 s Max latent heat flux   0.000E+00 W/m^2
FIRE:Time      28.500 s Average wind           0.124E+01 m/s
FIRE:Time      28.500 s Maximum wind           0.124E+01 m/s
FIRE:Time      28.500 s Fire area              0.000E+00 m^2
FIRE:Time      28.500 s Heat output            0.000E+00 W
FIRE:Time      28.500 s Max heat flux          0.000E+00 W/m^2
FIRE:Time      28.500 s Latent heat output     0.000E+00 W
FIRE:Time      28.500 s Max latent heat flux   0.000E+00 W/m^2
FIRE:Time      29.000 s Average wind           0.124E+01 m/s
FIRE:Time      29.000 s Maximum wind           0.124E+01 m/s
FIRE:Time      29.000 s Fire area              0.000E+00 m^2
FIRE:Time      29.000 s Heat output            0.000E+00 W
FIRE:Time      29.000 s Max heat flux          0.000E+00 W/m^2
FIRE:Time      29.000 s Latent heat output     0.000E+00 W
FIRE:Time      29.000 s Max latent heat flux   0.000E+00 W/m^2
FIRE:Time      29.500 s Average wind           0.124E+01 m/s
FIRE:Time      29.500 s Maximum wind           0.124E+01 m/s
FIRE:Time      29.500 s Fire area              0.000E+00 m^2
FIRE:Time      29.500 s Heat output            0.000E+00 W
FIRE:Time      29.500 s Max heat flux          0.000E+00 W/m^2
FIRE:Time      29.500 s Latent heat output     0.000E+00 W
FIRE:Time      29.500 s Max latent heat flux   0.000E+00 W/m^2
FIRE:Time      30.000 s Average wind           0.124E+01 m/s
FIRE:Time      30.000 s Maximum wind           0.124E+01 m/s
FIRE:Time      30.000 s Fire area              0.000E+00 m^2
FIRE:Time      30.000 s Heat output            0.000E+00 W
FIRE:Time      30.000 s Max heat flux          0.000E+00 W/m^2
FIRE:Time      30.000 s Latent heat output     0.000E+00 W
FIRE:Time      30.000 s Max latent heat flux   0.000E+00 W/m^2
FIRE:Time      30.500 s Average wind           0.124E+01 m/s
FIRE:Time      30.500 s Maximum wind           0.124E+01 m/s
FIRE:Time      30.500 s Fire area              0.000E+00 m^2
FIRE:Time      30.500 s Heat output            0.000E+00 W
FIRE:Time      30.500 s Max heat flux          0.000E+00 W/m^2
FIRE:Time      30.500 s Latent heat output     0.000E+00 W
FIRE:Time      30.500 s Max latent heat flux   0.000E+00 W/m^2
FIRE:Time      31.000 s Average wind           0.124E+01 m/s
FIRE:Time      31.000 s Maximum wind           0.124E+01 m/s
FIRE:Time      31.000 s Fire area              0.000E+00 m^2
FIRE:Time      31.000 s Heat output            0.000E+00 W
FIRE:Time      31.000 s Max heat flux          0.000E+00 W/m^2
FIRE:Time      31.000 s Latent heat output     0.000E+00 W
FIRE:Time      31.000 s Max latent heat flux   0.000E+00 W/m^2
FIRE:Time      31.500 s Average wind           0.124E+01 m/s
FIRE:Time      31.500 s Maximum wind           0.124E+01 m/s
FIRE:Time      31.500 s Fire area              0.000E+00 m^2
FIRE:Time      31.500 s Heat output            0.000E+00 W
FIRE:Time      31.500 s Max heat flux          0.000E+00 W/m^2
FIRE:Time      31.500 s Latent heat output     0.000E+00 W
FIRE:Time      31.500 s Max latent heat flux   0.000E+00 W/m^2
FIRE:Time      32.000 s Average wind           0.124E+01 m/s
FIRE:Time      32.000 s Maximum wind           0.124E+01 m/s
FIRE:Time      32.000 s Fire area              0.000E+00 m^2
FIRE:Time      32.000 s Heat output            0.000E+00 W
FIRE:Time      32.000 s Max heat flux          0.000E+00 W/m^2
FIRE:Time      32.000 s Latent heat output     0.000E+00 W
FIRE:Time      32.000 s Max latent heat flux   0.000E+00 W/m^2
FIRE:Time      32.500 s Average wind           0.124E+01 m/s
FIRE:Time      32.500 s Maximum wind           0.124E+01 m/s
FIRE:Time      32.500 s Fire area              0.000E+00 m^2
FIRE:Time      32.500 s Heat output            0.000E+00 W
FIRE:Time      32.500 s Max heat flux          0.000E+00 W/m^2
FIRE:Time      32.500 s Latent heat output     0.000E+00 W
FIRE:Time      32.500 s Max latent heat flux   0.000E+00 W/m^2
FIRE:Time      33.000 s Average wind           0.124E+01 m/s
FIRE:Time      33.000 s Maximum wind           0.124E+01 m/s
FIRE:Time      33.000 s Fire area              0.000E+00 m^2
FIRE:Time      33.000 s Heat output            0.000E+00 W
FIRE:Time      33.000 s Max heat flux          0.000E+00 W/m^2
FIRE:Time      33.000 s Latent heat output     0.000E+00 W
FIRE:Time      33.000 s Max latent heat flux   0.000E+00 W/m^2
FIRE:Time      33.500 s Average wind           0.124E+01 m/s
FIRE:Time      33.500 s Maximum wind           0.124E+01 m/s
FIRE:Time      33.500 s Fire area              0.000E+00 m^2
FIRE:Time      33.500 s Heat output            0.000E+00 W
FIRE:Time      33.500 s Max heat flux          0.000E+00 W/m^2
FIRE:Time      33.500 s Latent heat output     0.000E+00 W
FIRE:Time      33.500 s Max latent heat flux   0.000E+00 W/m^2
FIRE:Time      34.000 s Average wind           0.124E+01 m/s
FIRE:Time      34.000 s Maximum wind           0.124E+01 m/s
FIRE:Time      34.000 s Fire area              0.000E+00 m^2
FIRE:Time      34.000 s Heat output            0.000E+00 W
FIRE:Time      34.000 s Max heat flux          0.000E+00 W/m^2
FIRE:Time      34.000 s Latent heat output     0.000E+00 W
FIRE:Time      34.000 s Max latent heat flux   0.000E+00 W/m^2
FIRE:Time      34.500 s Average wind           0.124E+01 m/s
FIRE:Time      34.500 s Maximum wind           0.124E+01 m/s
FIRE:Time      34.500 s Fire area              0.000E+00 m^2
FIRE:Time      34.500 s Heat output            0.000E+00 W
FIRE:Time      34.500 s Max heat flux          0.000E+00 W/m^2
FIRE:Time      34.500 s Latent heat output     0.000E+00 W
FIRE:Time      34.500 s Max latent heat flux   0.000E+00 W/m^2
FIRE:Time      35.000 s Average wind           0.124E+01 m/s
FIRE:Time      35.000 s Maximum wind           0.124E+01 m/s
FIRE:Time      35.000 s Fire area              0.000E+00 m^2
FIRE:Time      35.000 s Heat output            0.000E+00 W
FIRE:Time      35.000 s Max heat flux          0.000E+00 W/m^2
FIRE:Time      35.000 s Latent heat output     0.000E+00 W
FIRE:Time      35.000 s Max latent heat flux   0.000E+00 W/m^2
FIRE:Time      35.500 s Average wind           0.124E+01 m/s
FIRE:Time      35.500 s Maximum wind           0.124E+01 m/s
FIRE:Time      35.500 s Fire area              0.000E+00 m^2
FIRE:Time      35.500 s Heat output            0.000E+00 W
FIRE:Time      35.500 s Max heat flux          0.000E+00 W/m^2
FIRE:Time      35.500 s Latent heat output     0.000E+00 W
FIRE:Time      35.500 s Max latent heat flux   0.000E+00 W/m^2
FIRE:Time      36.000 s Average wind           0.124E+01 m/s
FIRE:Time      36.000 s Maximum wind           0.124E+01 m/s
FIRE:Time      36.000 s Fire area              0.000E+00 m^2
FIRE:Time      36.000 s Heat output            0.000E+00 W
FIRE:Time      36.000 s Max heat flux          0.000E+00 W/m^2
FIRE:Time      36.000 s Latent heat output     0.000E+00 W
FIRE:Time      36.000 s Max latent heat flux   0.000E+00 W/m^2
FIRE:Time      36.500 s Average wind           0.124E+01 m/s
FIRE:Time      36.500 s Maximum wind           0.124E+01 m/s
FIRE:Time      36.500 s Fire area              0.000E+00 m^2
FIRE:Time      36.500 s Heat output            0.000E+00 W
FIRE:Time      36.500 s Max heat flux          0.000E+00 W/m^2
FIRE:Time      36.500 s Latent heat output     0.000E+00 W
FIRE:Time      36.500 s Max latent heat flux   0.000E+00 W/m^2
FIRE:Time      37.000 s Average wind           0.124E+01 m/s
FIRE:Time      37.000 s Maximum wind           0.124E+01 m/s
FIRE:Time      37.000 s Fire area              0.000E+00 m^2
FIRE:Time      37.000 s Heat output            0.000E+00 W
FIRE:Time      37.000 s Max heat flux          0.000E+00 W/m^2
FIRE:Time      37.000 s Latent heat output     0.000E+00 W
FIRE:Time      37.000 s Max latent heat flux   0.000E+00 W/m^2
FIRE:Time      37.500 s Average wind           0.124E+01 m/s
FIRE:Time      37.500 s Maximum wind           0.124E+01 m/s
FIRE:Time      37.500 s Fire area              0.000E+00 m^2
FIRE:Time      37.500 s Heat output            0.000E+00 W
FIRE:Time      37.500 s Max heat flux          0.000E+00 W/m^2
FIRE:Time      37.500 s Latent heat output     0.000E+00 W
FIRE:Time      37.500 s Max latent heat flux   0.000E+00 W/m^2
FIRE:Time      38.000 s Average wind           0.124E+01 m/s
FIRE:Time      38.000 s Maximum wind           0.124E+01 m/s
FIRE:Time      38.000 s Fire area              0.000E+00 m^2
FIRE:Time      38.000 s Heat output            0.000E+00 W
FIRE:Time      38.000 s Max heat flux          0.000E+00 W/m^2
FIRE:Time      38.000 s Latent heat output     0.000E+00 W
FIRE:Time      38.000 s Max latent heat flux   0.000E+00 W/m^2
FIRE:Time      38.500 s Average wind           0.124E+01 m/s
FIRE:Time      38.500 s Maximum wind           0.124E+01 m/s
FIRE:Time      38.500 s Fire area              0.000E+00 m^2
FIRE:Time      38.500 s Heat output            0.000E+00 W
FIRE:Time      38.500 s Max heat flux          0.000E+00 W/m^2
FIRE:Time      38.500 s Latent heat output     0.000E+00 W
FIRE:Time      38.500 s Max latent heat flux   0.000E+00 W/m^2
FIRE:Time      39.000 s Average wind           0.124E+01 m/s
FIRE:Time      39.000 s Maximum wind           0.124E+01 m/s
FIRE:Time      39.000 s Fire area              0.000E+00 m^2
FIRE:Time      39.000 s Heat output            0.000E+00 W
FIRE:Time      39.000 s Max heat flux          0.000E+00 W/m^2
FIRE:Time      39.000 s Latent heat output     0.000E+00 W
FIRE:Time      39.000 s Max latent heat flux   0.000E+00 W/m^2
FIRE:Time      39.500 s Average wind           0.124E+01 m/s
FIRE:Time      39.500 s Maximum wind           0.124E+01 m/s
FIRE:Time      39.500 s Fire area              0.000E+00 m^2
FIRE:Time      39.500 s Heat output            0.000E+00 W
FIRE:Time      39.500 s Max heat flux          0.000E+00 W/m^2
FIRE:Time      39.500 s Latent heat output     0.000E+00 W
FIRE:Time      39.500 s Max latent heat flux   0.000E+00 W/m^2
FIRE:Time      40.000 s Average wind           0.124E+01 m/s
FIRE:Time      40.000 s Maximum wind           0.124E+01 m/s
FIRE:Time      40.000 s Fire area              0.000E+00 m^2
FIRE:Time      40.000 s Heat output            0.000E+00 W
FIRE:Time      40.000 s Max heat flux          0.000E+00 W/m^2
FIRE:Time      40.000 s Latent heat output     0.000E+00 W
FIRE:Time      40.000 s Max latent heat flux   0.000E+00 W/m^2
FIRE:Time      40.500 s Average wind           0.124E+01 m/s
FIRE:Time      40.500 s Maximum wind           0.124E+01 m/s
FIRE:Time      40.500 s Fire area              0.000E+00 m^2
FIRE:Time      40.500 s Heat output            0.000E+00 W
FIRE:Time      40.500 s Max heat flux          0.000E+00 W/m^2
FIRE:Time      40.500 s Latent heat output     0.000E+00 W
FIRE:Time      40.500 s Max latent heat flux   0.000E+00 W/m^2
FIRE:Time      41.000 s Average wind           0.124E+01 m/s
FIRE:Time      41.000 s Maximum wind           0.124E+01 m/s
FIRE:Time      41.000 s Fire area              0.000E+00 m^2
FIRE:Time      41.000 s Heat output            0.000E+00 W
FIRE:Time      41.000 s Max heat flux          0.000E+00 W/m^2
FIRE:Time      41.000 s Latent heat output     0.000E+00 W
FIRE:Time      41.000 s Max latent heat flux   0.000E+00 W/m^2
FIRE:Time      41.500 s Average wind           0.124E+01 m/s
FIRE:Time      41.500 s Maximum wind           0.124E+01 m/s
FIRE:Time      41.500 s Fire area              0.000E+00 m^2
FIRE:Time      41.500 s Heat output            0.000E+00 W
FIRE:Time      41.500 s Max heat flux          0.000E+00 W/m^2
FIRE:Time      41.500 s Latent heat output     0.000E+00 W
FIRE:Time      41.500 s Max latent heat flux   0.000E+00 W/m^2
FIRE:Time      42.000 s Average wind           0.124E+01 m/s
FIRE:Time      42.000 s Maximum wind           0.124E+01 m/s
FIRE:Time      42.000 s Fire area              0.000E+00 m^2
FIRE:Time      42.000 s Heat output            0.000E+00 W
FIRE:Time      42.000 s Max heat flux          0.000E+00 W/m^2
FIRE:Time      42.000 s Latent heat output     0.000E+00 W
FIRE:Time      42.000 s Max latent heat flux   0.000E+00 W/m^2
FIRE:Time      42.500 s Average wind           0.124E+01 m/s
FIRE:Time      42.500 s Maximum wind           0.124E+01 m/s
FIRE:Time      42.500 s Fire area              0.000E+00 m^2
FIRE:Time      42.500 s Heat output            0.000E+00 W
FIRE:Time      42.500 s Max heat flux          0.000E+00 W/m^2
FIRE:Time      42.500 s Latent heat output     0.000E+00 W
FIRE:Time      42.500 s Max latent heat flux   0.000E+00 W/m^2
FIRE:Time      43.000 s Average wind           0.124E+01 m/s
FIRE:Time      43.000 s Maximum wind           0.124E+01 m/s
FIRE:Time      43.000 s Fire area              0.000E+00 m^2
FIRE:Time      43.000 s Heat output            0.000E+00 W
FIRE:Time      43.000 s Max heat flux          0.000E+00 W/m^2
FIRE:Time      43.000 s Latent heat output     0.000E+00 W
FIRE:Time      43.000 s Max latent heat flux   0.000E+00 W/m^2
FIRE:Time      43.500 s Average wind           0.124E+01 m/s
FIRE:Time      43.500 s Maximum wind           0.124E+01 m/s
FIRE:Time      43.500 s Fire area              0.000E+00 m^2
FIRE:Time      43.500 s Heat output            0.000E+00 W
FIRE:Time      43.500 s Max heat flux          0.000E+00 W/m^2
FIRE:Time      43.500 s Latent heat output     0.000E+00 W
FIRE:Time      43.500 s Max latent heat flux   0.000E+00 W/m^2
FIRE:Time      44.000 s Average wind           0.124E+01 m/s
FIRE:Time      44.000 s Maximum wind           0.124E+01 m/s
FIRE:Time      44.000 s Fire area              0.000E+00 m^2
FIRE:Time      44.000 s Heat output            0.000E+00 W
FIRE:Time      44.000 s Max heat flux          0.000E+00 W/m^2
FIRE:Time      44.000 s Latent heat output     0.000E+00 W
FIRE:Time      44.000 s Max latent heat flux   0.000E+00 W/m^2
FIRE:Time      44.500 s Average wind           0.124E+01 m/s
FIRE:Time      44.500 s Maximum wind           0.124E+01 m/s
FIRE:Time      44.500 s Fire area              0.000E+00 m^2
FIRE:Time      44.500 s Heat output            0.000E+00 W
FIRE:Time      44.500 s Max heat flux          0.000E+00 W/m^2
FIRE:Time      44.500 s Latent heat output     0.000E+00 W
FIRE:Time      44.500 s Max latent heat flux   0.000E+00 W/m^2
FIRE:Time      45.000 s Average wind           0.124E+01 m/s
FIRE:Time      45.000 s Maximum wind           0.124E+01 m/s
FIRE:Time      45.000 s Fire area              0.000E+00 m^2
FIRE:Time      45.000 s Heat output            0.000E+00 W
FIRE:Time      45.000 s Max heat flux          0.000E+00 W/m^2
FIRE:Time      45.000 s Latent heat output     0.000E+00 W
FIRE:Time      45.000 s Max latent heat flux   0.000E+00 W/m^2
FIRE:Time      45.500 s Average wind           0.124E+01 m/s
FIRE:Time      45.500 s Maximum wind           0.124E+01 m/s
FIRE:Time      45.500 s Fire area              0.000E+00 m^2
FIRE:Time      45.500 s Heat output            0.000E+00 W
FIRE:Time      45.500 s Max heat flux          0.000E+00 W/m^2
FIRE:Time      45.500 s Latent heat output     0.000E+00 W
FIRE:Time      45.500 s Max latent heat flux   0.000E+00 W/m^2
FIRE:Time      46.000 s Average wind           0.124E+01 m/s
FIRE:Time      46.000 s Maximum wind           0.124E+01 m/s
FIRE:Time      46.000 s Fire area              0.000E+00 m^2
FIRE:Time      46.000 s Heat output            0.000E+00 W
FIRE:Time      46.000 s Max heat flux          0.000E+00 W/m^2
FIRE:Time      46.000 s Latent heat output     0.000E+00 W
FIRE:Time      46.000 s Max latent heat flux   0.000E+00 W/m^2
FIRE:Time      46.500 s Average wind           0.124E+01 m/s
FIRE:Time      46.500 s Maximum wind           0.124E+01 m/s
FIRE:Time      46.500 s Fire area              0.000E+00 m^2
FIRE:Time      46.500 s Heat output            0.000E+00 W
FIRE:Time      46.500 s Max heat flux          0.000E+00 W/m^2
FIRE:Time      46.500 s Latent heat output     0.000E+00 W
FIRE:Time      46.500 s Max latent heat flux   0.000E+00 W/m^2
FIRE:Time      47.000 s Average wind           0.124E+01 m/s
FIRE:Time      47.000 s Maximum wind           0.124E+01 m/s
FIRE:Time      47.000 s Fire area              0.000E+00 m^2
FIRE:Time      47.000 s Heat output            0.000E+00 W
FIRE:Time      47.000 s Max heat flux          0.000E+00 W/m^2
FIRE:Time      47.000 s Latent heat output     0.000E+00 W
FIRE:Time      47.000 s Max latent heat flux   0.000E+00 W/m^2
FIRE:Time      47.500 s Average wind           0.124E+01 m/s
FIRE:Time      47.500 s Maximum wind           0.124E+01 m/s
FIRE:Time      47.500 s Fire area              0.000E+00 m^2
FIRE:Time      47.500 s Heat output            0.000E+00 W
FIRE:Time      47.500 s Max heat flux          0.000E+00 W/m^2
FIRE:Time      47.500 s Latent heat output     0.000E+00 W
FIRE:Time      47.500 s Max latent heat flux   0.000E+00 W/m^2
FIRE:Time      48.000 s Average wind           0.124E+01 m/s
FIRE:Time      48.000 s Maximum wind           0.124E+01 m/s
FIRE:Time      48.000 s Fire area              0.000E+00 m^2
FIRE:Time      48.000 s Heat output            0.000E+00 W
FIRE:Time      48.000 s Max heat flux          0.000E+00 W/m^2
FIRE:Time      48.000 s Latent heat output     0.000E+00 W
FIRE:Time      48.000 s Max latent heat flux   0.000E+00 W/m^2
FIRE:Time      48.500 s Average wind           0.124E+01 m/s
FIRE:Time      48.500 s Maximum wind           0.124E+01 m/s
FIRE:Time      48.500 s Fire area              0.000E+00 m^2
FIRE:Time      48.500 s Heat output            0.000E+00 W
FIRE:Time      48.500 s Max heat flux          0.000E+00 W/m^2
FIRE:Time      48.500 s Latent heat output     0.000E+00 W
FIRE:Time      48.500 s Max latent heat flux   0.000E+00 W/m^2
FIRE:Time      49.000 s Average wind           0.124E+01 m/s
FIRE:Time      49.000 s Maximum wind           0.124E+01 m/s
FIRE:Time      49.000 s Fire area              0.000E+00 m^2
FIRE:Time      49.000 s Heat output            0.000E+00 W
FIRE:Time      49.000 s Max heat flux          0.000E+00 W/m^2
FIRE:Time      49.000 s Latent heat output     0.000E+00 W
FIRE:Time      49.000 s Max latent heat flux   0.000E+00 W/m^2
FIRE:Time      49.500 s Average wind           0.124E+01 m/s
FIRE:Time      49.500 s Maximum wind           0.124E+01 m/s
FIRE:Time      49.500 s Fire area              0.000E+00 m^2
FIRE:Time      49.500 s Heat output            0.000E+00 W
FIRE:Time      49.500 s Max heat flux          0.000E+00 W/m^2
FIRE:Time      49.500 s Latent heat output     0.000E+00 W
FIRE:Time      49.500 s Max latent heat flux   0.000E+00 W/m^2
FIRE:Time      50.000 s Average wind           0.124E+01 m/s
FIRE:Time      50.000 s Maximum wind           0.124E+01 m/s
FIRE:Time      50.000 s Fire area              0.000E+00 m^2
FIRE:Time      50.000 s Heat output            0.000E+00 W
FIRE:Time      50.000 s Max heat flux          0.000E+00 W/m^2
FIRE:Time      50.000 s Latent heat output     0.000E+00 W
FIRE:Time      50.000 s Max latent heat flux   0.000E+00 W/m^2
FIRE:Time      50.500 s Average wind           0.124E+01 m/s
FIRE:Time      50.500 s Maximum wind           0.124E+01 m/s
FIRE:Time      50.500 s Fire area              0.000E+00 m^2
FIRE:Time      50.500 s Heat output            0.000E+00 W
FIRE:Time      50.500 s Max heat flux          0.000E+00 W/m^2
FIRE:Time      50.500 s Latent heat output     0.000E+00 W
FIRE:Time      50.500 s Max latent heat flux   0.000E+00 W/m^2
FIRE:Time      51.000 s Average wind           0.124E+01 m/s
FIRE:Time      51.000 s Maximum wind           0.124E+01 m/s
FIRE:Time      51.000 s Fire area              0.000E+00 m^2
FIRE:Time      51.000 s Heat output            0.000E+00 W
FIRE:Time      51.000 s Max heat flux          0.000E+00 W/m^2
FIRE:Time      51.000 s Latent heat output     0.000E+00 W
FIRE:Time      51.000 s Max latent heat flux   0.000E+00 W/m^2
FIRE:Time      51.500 s Average wind           0.124E+01 m/s
FIRE:Time      51.500 s Maximum wind           0.124E+01 m/s
FIRE:Time      51.500 s Fire area              0.000E+00 m^2
FIRE:Time      51.500 s Heat output            0.000E+00 W
FIRE:Time      51.500 s Max heat flux          0.000E+00 W/m^2
FIRE:Time      51.500 s Latent heat output     0.000E+00 W
FIRE:Time      51.500 s Max latent heat flux   0.000E+00 W/m^2
FIRE:Time      52.000 s Average wind           0.124E+01 m/s
FIRE:Time      52.000 s Maximum wind           0.124E+01 m/s
FIRE:Time      52.000 s Fire area              0.000E+00 m^2
FIRE:Time      52.000 s Heat output            0.000E+00 W
FIRE:Time      52.000 s Max heat flux          0.000E+00 W/m^2
FIRE:Time      52.000 s Latent heat output     0.000E+00 W
FIRE:Time      52.000 s Max latent heat flux   0.000E+00 W/m^2
FIRE:Time      52.500 s Average wind           0.124E+01 m/s
FIRE:Time      52.500 s Maximum wind           0.124E+01 m/s
FIRE:Time      52.500 s Fire area              0.000E+00 m^2
FIRE:Time      52.500 s Heat output            0.000E+00 W
FIRE:Time      52.500 s Max heat flux          0.000E+00 W/m^2
FIRE:Time      52.500 s Latent heat output     0.000E+00 W
FIRE:Time      52.500 s Max latent heat flux   0.000E+00 W/m^2
FIRE:Time      53.000 s Average wind           0.124E+01 m/s
FIRE:Time      53.000 s Maximum wind           0.124E+01 m/s
FIRE:Time      53.000 s Fire area              0.000E+00 m^2
FIRE:Time      53.000 s Heat output            0.000E+00 W
FIRE:Time      53.000 s Max heat flux          0.000E+00 W/m^2
FIRE:Time      53.000 s Latent heat output     0.000E+00 W
FIRE:Time      53.000 s Max latent heat flux   0.000E+00 W/m^2
FIRE:Time      53.500 s Average wind           0.124E+01 m/s
FIRE:Time      53.500 s Maximum wind           0.124E+01 m/s
FIRE:Time      53.500 s Fire area              0.000E+00 m^2
FIRE:Time      53.500 s Heat output            0.000E+00 W
FIRE:Time      53.500 s Max heat flux          0.000E+00 W/m^2
FIRE:Time      53.500 s Latent heat output     0.000E+00 W
FIRE:Time      53.500 s Max latent heat flux   0.000E+00 W/m^2
FIRE:Time      54.000 s Average wind           0.124E+01 m/s
FIRE:Time      54.000 s Maximum wind           0.124E+01 m/s
FIRE:Time      54.000 s Fire area              0.000E+00 m^2
FIRE:Time      54.000 s Heat output            0.000E+00 W
FIRE:Time      54.000 s Max heat flux          0.000E+00 W/m^2
FIRE:Time      54.000 s Latent heat output     0.000E+00 W
FIRE:Time      54.000 s Max latent heat flux   0.000E+00 W/m^2
FIRE:Time      54.500 s Average wind           0.124E+01 m/s
FIRE:Time      54.500 s Maximum wind           0.124E+01 m/s
FIRE:Time      54.500 s Fire area              0.000E+00 m^2
FIRE:Time      54.500 s Heat output            0.000E+00 W
FIRE:Time      54.500 s Max heat flux          0.000E+00 W/m^2
FIRE:Time      54.500 s Latent heat output     0.000E+00 W
FIRE:Time      54.500 s Max latent heat flux   0.000E+00 W/m^2
FIRE:Time      55.000 s Average wind           0.124E+01 m/s
FIRE:Time      55.000 s Maximum wind           0.124E+01 m/s
FIRE:Time      55.000 s Fire area              0.000E+00 m^2
FIRE:Time      55.000 s Heat output            0.000E+00 W
FIRE:Time      55.000 s Max heat flux          0.000E+00 W/m^2
FIRE:Time      55.000 s Latent heat output     0.000E+00 W
FIRE:Time      55.000 s Max latent heat flux   0.000E+00 W/m^2
FIRE:Time      55.500 s Average wind           0.124E+01 m/s
FIRE:Time      55.500 s Maximum wind           0.124E+01 m/s
FIRE:Time      55.500 s Fire area              0.000E+00 m^2
FIRE:Time      55.500 s Heat output            0.000E+00 W
FIRE:Time      55.500 s Max heat flux          0.000E+00 W/m^2
FIRE:Time      55.500 s Latent heat output     0.000E+00 W
FIRE:Time      55.500 s Max latent heat flux   0.000E+00 W/m^2
FIRE:Time      56.000 s Average wind           0.124E+01 m/s
FIRE:Time      56.000 s Maximum wind           0.124E+01 m/s
FIRE:Time      56.000 s Fire area              0.000E+00 m^2
FIRE:Time      56.000 s Heat output            0.000E+00 W
FIRE:Time      56.000 s Max heat flux          0.000E+00 W/m^2
FIRE:Time      56.000 s Latent heat output     0.000E+00 W
FIRE:Time      56.000 s Max latent heat flux   0.000E+00 W/m^2
FIRE:Time      56.500 s Average wind           0.124E+01 m/s
FIRE:Time      56.500 s Maximum wind           0.124E+01 m/s
FIRE:Time      56.500 s Fire area              0.000E+00 m^2
FIRE:Time      56.500 s Heat output            0.000E+00 W
FIRE:Time      56.500 s Max heat flux          0.000E+00 W/m^2
FIRE:Time      56.500 s Latent heat output     0.000E+00 W
FIRE:Time      56.500 s Max latent heat flux   0.000E+00 W/m^2
FIRE:Time      57.000 s Average wind           0.124E+01 m/s
FIRE:Time      57.000 s Maximum wind           0.124E+01 m/s
FIRE:Time      57.000 s Fire area              0.000E+00 m^2
FIRE:Time      57.000 s Heat output            0.000E+00 W
FIRE:Time      57.000 s Max heat flux          0.000E+00 W/m^2
FIRE:Time      57.000 s Latent heat output     0.000E+00 W
FIRE:Time      57.000 s Max latent heat flux   0.000E+00 W/m^2
FIRE:Time      57.500 s Average wind           0.124E+01 m/s
FIRE:Time      57.500 s Maximum wind           0.124E+01 m/s
FIRE:Time      57.500 s Fire area              0.000E+00 m^2
FIRE:Time      57.500 s Heat output            0.000E+00 W
FIRE:Time      57.500 s Max heat flux          0.000E+00 W/m^2
FIRE:Time      57.500 s Latent heat output     0.000E+00 W
FIRE:Time      57.500 s Max latent heat flux   0.000E+00 W/m^2
FIRE:Time      58.000 s Average wind           0.124E+01 m/s
FIRE:Time      58.000 s Maximum wind           0.124E+01 m/s
FIRE:Time      58.000 s Fire area              0.000E+00 m^2
FIRE:Time      58.000 s Heat output            0.000E+00 W
FIRE:Time      58.000 s Max heat flux          0.000E+00 W/m^2
FIRE:Time      58.000 s Latent heat output     0.000E+00 W
FIRE:Time      58.000 s Max latent heat flux   0.000E+00 W/m^2
FIRE:Time      58.500 s Average wind           0.124E+01 m/s
FIRE:Time      58.500 s Maximum wind           0.124E+01 m/s
FIRE:Time      58.500 s Fire area              0.000E+00 m^2
FIRE:Time      58.500 s Heat output            0.000E+00 W
FIRE:Time      58.500 s Max heat flux          0.000E+00 W/m^2
FIRE:Time      58.500 s Latent heat output     0.000E+00 W
FIRE:Time      58.500 s Max latent heat flux   0.000E+00 W/m^2
FIRE:Time      59.000 s Average wind           0.124E+01 m/s
FIRE:Time      59.000 s Maximum wind           0.124E+01 m/s
FIRE:Time      59.000 s Fire area              0.000E+00 m^2
FIRE:Time      59.000 s Heat output            0.000E+00 W
FIRE:Time      59.000 s Max heat flux          0.000E+00 W/m^2
FIRE:Time      59.000 s Latent heat output     0.000E+00 W
FIRE:Time      59.000 s Max latent heat flux   0.000E+00 W/m^2
FIRE:Time      59.500 s Average wind           0.124E+01 m/s
FIRE:Time      59.500 s Maximum wind           0.124E+01 m/s
FIRE:Time      59.500 s Fire area              0.000E+00 m^2
FIRE:Time      59.500 s Heat output            0.000E+00 W
FIRE:Time      59.500 s Max heat flux          0.000E+00 W/m^2
FIRE:Time      59.500 s Latent heat output     0.000E+00 W
FIRE:Time      59.500 s Max latent heat flux   0.000E+00 W/m^2
FIRE:Time      60.000 s Average wind           0.124E+01 m/s
FIRE:Time      60.000 s Maximum wind           0.124E+01 m/s
FIRE:Time      60.000 s Fire area              0.000E+00 m^2
FIRE:Time      60.000 s Heat output            0.000E+00 W
FIRE:Time      60.000 s Max heat flux          0.000E+00 W/m^2
FIRE:Time      60.000 s Latent heat output     0.000E+00 W
FIRE:Time      60.000 s Max latent heat flux   0.000E+00 W/m^2
FIRE:Time      60.500 s Average wind           0.124E+01 m/s
FIRE:Time      60.500 s Maximum wind           0.124E+01 m/s
FIRE:Time      60.500 s Fire area              0.000E+00 m^2
FIRE:Time      60.500 s Heat output            0.000E+00 W
FIRE:Time      60.500 s Max heat flux          0.000E+00 W/m^2
FIRE:Time      60.500 s Latent heat output     0.000E+00 W
FIRE:Time      60.500 s Max latent heat flux   0.000E+00 W/m^2
FIRE:Time      61.000 s Average wind           0.124E+01 m/s
FIRE:Time      61.000 s Maximum wind           0.124E+01 m/s
FIRE:Time      61.000 s Fire area              0.000E+00 m^2
FIRE:Time      61.000 s Heat output            0.000E+00 W
FIRE:Time      61.000 s Max heat flux          0.000E+00 W/m^2
FIRE:Time      61.000 s Latent heat output     0.000E+00 W
FIRE:Time      61.000 s Max latent heat flux   0.000E+00 W/m^2
FIRE:Time      61.500 s Average wind           0.124E+01 m/s
FIRE:Time      61.500 s Maximum wind           0.124E+01 m/s
FIRE:Time      61.500 s Fire area              0.000E+00 m^2
FIRE:Time      61.500 s Heat output            0.000E+00 W
FIRE:Time      61.500 s Max heat flux          0.000E+00 W/m^2
FIRE:Time      61.500 s Latent heat output     0.000E+00 W
FIRE:Time      61.500 s Max latent heat flux   0.000E+00 W/m^2
FIRE:Time      62.000 s Average wind           0.124E+01 m/s
FIRE:Time      62.000 s Maximum wind           0.124E+01 m/s
FIRE:Time      62.000 s Fire area              0.000E+00 m^2
FIRE:Time      62.000 s Heat output            0.000E+00 W
FIRE:Time      62.000 s Max heat flux          0.000E+00 W/m^2
FIRE:Time      62.000 s Latent heat output     0.000E+00 W
FIRE:Time      62.000 s Max latent heat flux   0.000E+00 W/m^2
FIRE:Time      62.500 s Average wind           0.124E+01 m/s
FIRE:Time      62.500 s Maximum wind           0.124E+01 m/s
FIRE:Time      62.500 s Fire area              0.000E+00 m^2
FIRE:Time      62.500 s Heat output            0.000E+00 W
FIRE:Time      62.500 s Max heat flux          0.000E+00 W/m^2
FIRE:Time      62.500 s Latent heat output     0.000E+00 W
FIRE:Time      62.500 s Max latent heat flux   0.000E+00 W/m^2
FIRE:Time      63.000 s Average wind           0.124E+01 m/s
FIRE:Time      63.000 s Maximum wind           0.124E+01 m/s
FIRE:Time      63.000 s Fire area              0.000E+00 m^2
FIRE:Time      63.000 s Heat output            0.000E+00 W
FIRE:Time      63.000 s Max heat flux          0.000E+00 W/m^2
FIRE:Time      63.000 s Latent heat output     0.000E+00 W
FIRE:Time      63.000 s Max latent heat flux   0.000E+00 W/m^2
FIRE:Time      63.500 s Average wind           0.124E+01 m/s
FIRE:Time      63.500 s Maximum wind           0.124E+01 m/s
FIRE:Time      63.500 s Fire area              0.000E+00 m^2
FIRE:Time      63.500 s Heat output            0.000E+00 W
FIRE:Time      63.500 s Max heat flux          0.000E+00 W/m^2
FIRE:Time      63.500 s Latent heat output     0.000E+00 W
FIRE:Time      63.500 s Max latent heat flux   0.000E+00 W/m^2
FIRE:Time      64.000 s Average wind           0.124E+01 m/s
FIRE:Time      64.000 s Maximum wind           0.124E+01 m/s
FIRE:Time      64.000 s Fire area              0.000E+00 m^2
FIRE:Time      64.000 s Heat output            0.000E+00 W
FIRE:Time      64.000 s Max heat flux          0.000E+00 W/m^2
FIRE:Time      64.000 s Latent heat output     0.000E+00 W
FIRE:Time      64.000 s Max latent heat flux   0.000E+00 W/m^2
FIRE:Time      64.500 s Average wind           0.124E+01 m/s
FIRE:Time      64.500 s Maximum wind           0.124E+01 m/s
FIRE:Time      64.500 s Fire area              0.000E+00 m^2
FIRE:Time      64.500 s Heat output            0.000E+00 W
FIRE:Time      64.500 s Max heat flux          0.000E+00 W/m^2
FIRE:Time      64.500 s Latent heat output     0.000E+00 W
FIRE:Time      64.500 s Max latent heat flux   0.000E+00 W/m^2
FIRE:Time      65.000 s Average wind           0.124E+01 m/s
FIRE:Time      65.000 s Maximum wind           0.124E+01 m/s
FIRE:Time      65.000 s Fire area              0.000E+00 m^2
FIRE:Time      65.000 s Heat output            0.000E+00 W
FIRE:Time      65.000 s Max heat flux          0.000E+00 W/m^2
FIRE:Time      65.000 s Latent heat output     0.000E+00 W
FIRE:Time      65.000 s Max latent heat flux   0.000E+00 W/m^2
FIRE:Time      65.500 s Average wind           0.124E+01 m/s
FIRE:Time      65.500 s Maximum wind           0.124E+01 m/s
FIRE:Time      65.500 s Fire area              0.000E+00 m^2
FIRE:Time      65.500 s Heat output            0.000E+00 W
FIRE:Time      65.500 s Max heat flux          0.000E+00 W/m^2
FIRE:Time      65.500 s Latent heat output     0.000E+00 W
FIRE:Time      65.500 s Max latent heat flux   0.000E+00 W/m^2
FIRE:Time      66.000 s Average wind           0.124E+01 m/s
FIRE:Time      66.000 s Maximum wind           0.124E+01 m/s
FIRE:Time      66.000 s Fire area              0.000E+00 m^2
FIRE:Time      66.000 s Heat output            0.000E+00 W
FIRE:Time      66.000 s Max heat flux          0.000E+00 W/m^2
FIRE:Time      66.000 s Latent heat output     0.000E+00 W
FIRE:Time      66.000 s Max latent heat flux   0.000E+00 W/m^2
FIRE:Time      66.500 s Average wind           0.124E+01 m/s
FIRE:Time      66.500 s Maximum wind           0.124E+01 m/s
FIRE:Time      66.500 s Fire area              0.000E+00 m^2
FIRE:Time      66.500 s Heat output            0.000E+00 W
FIRE:Time      66.500 s Max heat flux          0.000E+00 W/m^2
FIRE:Time      66.500 s Latent heat output     0.000E+00 W
FIRE:Time      66.500 s Max latent heat flux   0.000E+00 W/m^2
FIRE:Time      67.000 s Average wind           0.124E+01 m/s
FIRE:Time      67.000 s Maximum wind           0.124E+01 m/s
FIRE:Time      67.000 s Fire area              0.000E+00 m^2
FIRE:Time      67.000 s Heat output            0.000E+00 W
FIRE:Time      67.000 s Max heat flux          0.000E+00 W/m^2
FIRE:Time      67.000 s Latent heat output     0.000E+00 W
FIRE:Time      67.000 s Max latent heat flux   0.000E+00 W/m^2
FIRE:Time      67.500 s Average wind           0.124E+01 m/s
FIRE:Time      67.500 s Maximum wind           0.124E+01 m/s
FIRE:Time      67.500 s Fire area              0.000E+00 m^2
FIRE:Time      67.500 s Heat output            0.000E+00 W
FIRE:Time      67.500 s Max heat flux          0.000E+00 W/m^2
FIRE:Time      67.500 s Latent heat output     0.000E+00 W
FIRE:Time      67.500 s Max latent heat flux   0.000E+00 W/m^2
FIRE:Time      68.000 s Average wind           0.124E+01 m/s
FIRE:Time      68.000 s Maximum wind           0.124E+01 m/s
FIRE:Time      68.000 s Fire area              0.000E+00 m^2
FIRE:Time      68.000 s Heat output            0.000E+00 W
FIRE:Time      68.000 s Max heat flux          0.000E+00 W/m^2
FIRE:Time      68.000 s Latent heat output     0.000E+00 W
FIRE:Time      68.000 s Max latent heat flux   0.000E+00 W/m^2
FIRE:Time      68.500 s Average wind           0.124E+01 m/s
FIRE:Time      68.500 s Maximum wind           0.124E+01 m/s
FIRE:Time      68.500 s Fire area              0.000E+00 m^2
FIRE:Time      68.500 s Heat output            0.000E+00 W
FIRE:Time      68.500 s Max heat flux          0.000E+00 W/m^2
FIRE:Time      68.500 s Latent heat output     0.000E+00 W
FIRE:Time      68.500 s Max latent heat flux   0.000E+00 W/m^2
FIRE:Time      69.000 s Average wind           0.124E+01 m/s
FIRE:Time      69.000 s Maximum wind           0.124E+01 m/s
FIRE:Time      69.000 s Fire area              0.000E+00 m^2
FIRE:Time      69.000 s Heat output            0.000E+00 W
FIRE:Time      69.000 s Max heat flux          0.000E+00 W/m^2
FIRE:Time      69.000 s Latent heat output     0.000E+00 W
FIRE:Time      69.000 s Max latent heat flux   0.000E+00 W/m^2
FIRE:Time      69.500 s Average wind           0.124E+01 m/s
FIRE:Time      69.500 s Maximum wind           0.124E+01 m/s
FIRE:Time      69.500 s Fire area              0.000E+00 m^2
FIRE:Time      69.500 s Heat output            0.000E+00 W
FIRE:Time      69.500 s Max heat flux          0.000E+00 W/m^2
FIRE:Time      69.500 s Latent heat output     0.000E+00 W
FIRE:Time      69.500 s Max latent heat flux   0.000E+00 W/m^2
FIRE:Time      70.000 s Average wind           0.124E+01 m/s
FIRE:Time      70.000 s Maximum wind           0.124E+01 m/s
FIRE:Time      70.000 s Fire area              0.000E+00 m^2
FIRE:Time      70.000 s Heat output            0.000E+00 W
FIRE:Time      70.000 s Max heat flux          0.000E+00 W/m^2
FIRE:Time      70.000 s Latent heat output     0.000E+00 W
FIRE:Time      70.000 s Max latent heat flux   0.000E+00 W/m^2
FIRE:Time      70.500 s Average wind           0.124E+01 m/s
FIRE:Time      70.500 s Maximum wind           0.124E+01 m/s
FIRE:Time      70.500 s Fire area              0.000E+00 m^2
FIRE:Time      70.500 s Heat output            0.000E+00 W
FIRE:Time      70.500 s Max heat flux          0.000E+00 W/m^2
FIRE:Time      70.500 s Latent heat output     0.000E+00 W
FIRE:Time      70.500 s Max latent heat flux   0.000E+00 W/m^2
FIRE:Time      71.000 s Average wind           0.124E+01 m/s
FIRE:Time      71.000 s Maximum wind           0.124E+01 m/s
FIRE:Time      71.000 s Fire area              0.000E+00 m^2
FIRE:Time      71.000 s Heat output            0.000E+00 W
FIRE:Time      71.000 s Max heat flux          0.000E+00 W/m^2
FIRE:Time      71.000 s Latent heat output     0.000E+00 W
FIRE:Time      71.000 s Max latent heat flux   0.000E+00 W/m^2
FIRE:Time      71.500 s Average wind           0.124E+01 m/s
FIRE:Time      71.500 s Maximum wind           0.124E+01 m/s
FIRE:Time      71.500 s Fire area              0.000E+00 m^2
FIRE:Time      71.500 s Heat output            0.000E+00 W
FIRE:Time      71.500 s Max heat flux          0.000E+00 W/m^2
FIRE:Time      71.500 s Latent heat output     0.000E+00 W
FIRE:Time      71.500 s Max latent heat flux   0.000E+00 W/m^2
FIRE:Time      72.000 s Average wind           0.124E+01 m/s
FIRE:Time      72.000 s Maximum wind           0.124E+01 m/s
FIRE:Time      72.000 s Fire area              0.000E+00 m^2
FIRE:Time      72.000 s Heat output            0.000E+00 W
FIRE:Time      72.000 s Max heat flux          0.000E+00 W/m^2
FIRE:Time      72.000 s Latent heat output     0.000E+00 W
FIRE:Time      72.000 s Max latent heat flux   0.000E+00 W/m^2
FIRE:Time      72.500 s Average wind           0.124E+01 m/s
FIRE:Time      72.500 s Maximum wind           0.124E+01 m/s
FIRE:Time      72.500 s Fire area              0.000E+00 m^2
FIRE:Time      72.500 s Heat output            0.000E+00 W
FIRE:Time      72.500 s Max heat flux          0.000E+00 W/m^2
FIRE:Time      72.500 s Latent heat output     0.000E+00 W
FIRE:Time      72.500 s Max latent heat flux   0.000E+00 W/m^2
FIRE:Time      73.000 s Average wind           0.124E+01 m/s
FIRE:Time      73.000 s Maximum wind           0.124E+01 m/s
FIRE:Time      73.000 s Fire area              0.000E+00 m^2
FIRE:Time      73.000 s Heat output            0.000E+00 W
FIRE:Time      73.000 s Max heat flux          0.000E+00 W/m^2
FIRE:Time      73.000 s Latent heat output     0.000E+00 W
FIRE:Time      73.000 s Max latent heat flux   0.000E+00 W/m^2
FIRE:Time      73.500 s Average wind           0.124E+01 m/s
FIRE:Time      73.500 s Maximum wind           0.124E+01 m/s
FIRE:Time      73.500 s Fire area              0.000E+00 m^2
FIRE:Time      73.500 s Heat output            0.000E+00 W
FIRE:Time      73.500 s Max heat flux          0.000E+00 W/m^2
FIRE:Time      73.500 s Latent heat output     0.000E+00 W
FIRE:Time      73.500 s Max latent heat flux   0.000E+00 W/m^2
FIRE:Time      74.000 s Average wind           0.124E+01 m/s
FIRE:Time      74.000 s Maximum wind           0.124E+01 m/s
FIRE:Time      74.000 s Fire area              0.000E+00 m^2
FIRE:Time      74.000 s Heat output            0.000E+00 W
FIRE:Time      74.000 s Max heat flux          0.000E+00 W/m^2
FIRE:Time      74.000 s Latent heat output     0.000E+00 W
FIRE:Time      74.000 s Max latent heat flux   0.000E+00 W/m^2
FIRE:Time      74.500 s Average wind           0.124E+01 m/s
FIRE:Time      74.500 s Maximum wind           0.124E+01 m/s
FIRE:Time      74.500 s Fire area              0.000E+00 m^2
FIRE:Time      74.500 s Heat output            0.000E+00 W
FIRE:Time      74.500 s Max heat flux          0.000E+00 W/m^2
FIRE:Time      74.500 s Latent heat output     0.000E+00 W
FIRE:Time      74.500 s Max latent heat flux   0.000E+00 W/m^2
FIRE:Time      75.000 s Average wind           0.124E+01 m/s
FIRE:Time      75.000 s Maximum wind           0.124E+01 m/s
FIRE:Time      75.000 s Fire area              0.000E+00 m^2
FIRE:Time      75.000 s Heat output            0.000E+00 W
FIRE:Time      75.000 s Max heat flux          0.000E+00 W/m^2
FIRE:Time      75.000 s Latent heat output     0.000E+00 W
FIRE:Time      75.000 s Max latent heat flux   0.000E+00 W/m^2
FIRE:Time      75.500 s Average wind           0.124E+01 m/s
FIRE:Time      75.500 s Maximum wind           0.124E+01 m/s
FIRE:Time      75.500 s Fire area              0.000E+00 m^2
FIRE:Time      75.500 s Heat output            0.000E+00 W
FIRE:Time      75.500 s Max heat flux          0.000E+00 W/m^2
FIRE:Time      75.500 s Latent heat output     0.000E+00 W
FIRE:Time      75.500 s Max latent heat flux   0.000E+00 W/m^2
FIRE:Time      76.000 s Average wind           0.124E+01 m/s
FIRE:Time      76.000 s Maximum wind           0.124E+01 m/s
FIRE:Time      76.000 s Fire area              0.000E+00 m^2
FIRE:Time      76.000 s Heat output            0.000E+00 W
FIRE:Time      76.000 s Max heat flux          0.000E+00 W/m^2
FIRE:Time      76.000 s Latent heat output     0.000E+00 W
FIRE:Time      76.000 s Max latent heat flux   0.000E+00 W/m^2
FIRE:Time      76.500 s Average wind           0.124E+01 m/s
FIRE:Time      76.500 s Maximum wind           0.124E+01 m/s
FIRE:Time      76.500 s Fire area              0.000E+00 m^2
FIRE:Time      76.500 s Heat output            0.000E+00 W
FIRE:Time      76.500 s Max heat flux          0.000E+00 W/m^2
FIRE:Time      76.500 s Latent heat output     0.000E+00 W
FIRE:Time      76.500 s Max latent heat flux   0.000E+00 W/m^2
FIRE:Time      77.000 s Average wind           0.124E+01 m/s
FIRE:Time      77.000 s Maximum wind           0.124E+01 m/s
FIRE:Time      77.000 s Fire area              0.000E+00 m^2
FIRE:Time      77.000 s Heat output            0.000E+00 W
FIRE:Time      77.000 s Max heat flux          0.000E+00 W/m^2
FIRE:Time      77.000 s Latent heat output     0.000E+00 W
FIRE:Time      77.000 s Max latent heat flux   0.000E+00 W/m^2
FIRE:Time      77.500 s Average wind           0.124E+01 m/s
FIRE:Time      77.500 s Maximum wind           0.124E+01 m/s
FIRE:Time      77.500 s Fire area              0.000E+00 m^2
FIRE:Time      77.500 s Heat output            0.000E+00 W
FIRE:Time      77.500 s Max heat flux          0.000E+00 W/m^2
FIRE:Time      77.500 s Latent heat output     0.000E+00 W
FIRE:Time      77.500 s Max latent heat flux   0.000E+00 W/m^2
FIRE:Time      78.000 s Average wind           0.124E+01 m/s
FIRE:Time      78.000 s Maximum wind           0.124E+01 m/s
FIRE:Time      78.000 s Fire area              0.000E+00 m^2
FIRE:Time      78.000 s Heat output            0.000E+00 W
FIRE:Time      78.000 s Max heat flux          0.000E+00 W/m^2
FIRE:Time      78.000 s Latent heat output     0.000E+00 W
FIRE:Time      78.000 s Max latent heat flux   0.000E+00 W/m^2
FIRE:Time      78.500 s Average wind           0.124E+01 m/s
FIRE:Time      78.500 s Maximum wind           0.124E+01 m/s
FIRE:Time      78.500 s Fire area              0.000E+00 m^2
FIRE:Time      78.500 s Heat output            0.000E+00 W
FIRE:Time      78.500 s Max heat flux          0.000E+00 W/m^2
FIRE:Time      78.500 s Latent heat output     0.000E+00 W
FIRE:Time      78.500 s Max latent heat flux   0.000E+00 W/m^2
FIRE:Time      79.000 s Average wind           0.124E+01 m/s
FIRE:Time      79.000 s Maximum wind           0.124E+01 m/s
FIRE:Time      79.000 s Fire area              0.000E+00 m^2
FIRE:Time      79.000 s Heat output            0.000E+00 W
FIRE:Time      79.000 s Max heat flux          0.000E+00 W/m^2
FIRE:Time      79.000 s Latent heat output     0.000E+00 W
FIRE:Time      79.000 s Max latent heat flux   0.000E+00 W/m^2
FIRE:Time      79.500 s Average wind           0.124E+01 m/s
FIRE:Time      79.500 s Maximum wind           0.124E+01 m/s
FIRE:Time      79.500 s Fire area              0.000E+00 m^2
FIRE:Time      79.500 s Heat output            0.000E+00 W
FIRE:Time      79.500 s Max heat flux          0.000E+00 W/m^2
FIRE:Time      79.500 s Latent heat output     0.000E+00 W
FIRE:Time      79.500 s Max latent heat flux   0.000E+00 W/m^2
FIRE:Time      80.000 s Average wind           0.124E+01 m/s
FIRE:Time      80.000 s Maximum wind           0.124E+01 m/s
FIRE:Time      80.000 s Fire area              0.000E+00 m^2
FIRE:Time      80.000 s Heat output            0.000E+00 W
FIRE:Time      80.000 s Max heat flux          0.000E+00 W/m^2
FIRE:Time      80.000 s Latent heat output     0.000E+00 W
FIRE:Time      80.000 s Max latent heat flux   0.000E+00 W/m^2
FIRE:Time      80.500 s Average wind           0.124E+01 m/s
FIRE:Time      80.500 s Maximum wind           0.124E+01 m/s
FIRE:Time      80.500 s Fire area              0.000E+00 m^2
FIRE:Time      80.500 s Heat output            0.000E+00 W
FIRE:Time      80.500 s Max heat flux          0.000E+00 W/m^2
FIRE:Time      80.500 s Latent heat output     0.000E+00 W
FIRE:Time      80.500 s Max latent heat flux   0.000E+00 W/m^2
FIRE:Time      81.000 s Average wind           0.124E+01 m/s
FIRE:Time      81.000 s Maximum wind           0.124E+01 m/s
FIRE:Time      81.000 s Fire area              0.000E+00 m^2
FIRE:Time      81.000 s Heat output            0.000E+00 W
FIRE:Time      81.000 s Max heat flux          0.000E+00 W/m^2
FIRE:Time      81.000 s Latent heat output     0.000E+00 W
FIRE:Time      81.000 s Max latent heat flux   0.000E+00 W/m^2
FIRE:Time      81.500 s Average wind           0.124E+01 m/s
FIRE:Time      81.500 s Maximum wind           0.124E+01 m/s
FIRE:Time      81.500 s Fire area              0.000E+00 m^2
FIRE:Time      81.500 s Heat output            0.000E+00 W
FIRE:Time      81.500 s Max heat flux          0.000E+00 W/m^2
FIRE:Time      81.500 s Latent heat output     0.000E+00 W
FIRE:Time      81.500 s Max latent heat flux   0.000E+00 W/m^2
FIRE:Time      82.000 s Average wind           0.124E+01 m/s
FIRE:Time      82.000 s Maximum wind           0.124E+01 m/s
FIRE:Time      82.000 s Fire area              0.000E+00 m^2
FIRE:Time      82.000 s Heat output            0.000E+00 W
FIRE:Time      82.000 s Max heat flux          0.000E+00 W/m^2
FIRE:Time      82.000 s Latent heat output     0.000E+00 W
FIRE:Time      82.000 s Max latent heat flux   0.000E+00 W/m^2
FIRE:Time      82.500 s Average wind           0.124E+01 m/s
FIRE:Time      82.500 s Maximum wind           0.124E+01 m/s
FIRE:Time      82.500 s Fire area              0.000E+00 m^2
FIRE:Time      82.500 s Heat output            0.000E+00 W
FIRE:Time      82.500 s Max heat flux          0.000E+00 W/m^2
FIRE:Time      82.500 s Latent heat output     0.000E+00 W
FIRE:Time      82.500 s Max latent heat flux   0.000E+00 W/m^2
FIRE:Time      83.000 s Average wind           0.124E+01 m/s
FIRE:Time      83.000 s Maximum wind           0.124E+01 m/s
FIRE:Time      83.000 s Fire area              0.000E+00 m^2
FIRE:Time      83.000 s Heat output            0.000E+00 W
FIRE:Time      83.000 s Max heat flux          0.000E+00 W/m^2
FIRE:Time      83.000 s Latent heat output     0.000E+00 W
FIRE:Time      83.000 s Max latent heat flux   0.000E+00 W/m^2
FIRE:Time      83.500 s Average wind           0.124E+01 m/s
FIRE:Time      83.500 s Maximum wind           0.124E+01 m/s
FIRE:Time      83.500 s Fire area              0.000E+00 m^2
FIRE:Time      83.500 s Heat output            0.000E+00 W
FIRE:Time      83.500 s Max heat flux          0.000E+00 W/m^2
FIRE:Time      83.500 s Latent heat output     0.000E+00 W
FIRE:Time      83.500 s Max latent heat flux   0.000E+00 W/m^2
FIRE:Time      84.000 s Average wind           0.124E+01 m/s
FIRE:Time      84.000 s Maximum wind           0.124E+01 m/s
FIRE:Time      84.000 s Fire area              0.000E+00 m^2
FIRE:Time      84.000 s Heat output            0.000E+00 W
FIRE:Time      84.000 s Max heat flux          0.000E+00 W/m^2
FIRE:Time      84.000 s Latent heat output     0.000E+00 W
FIRE:Time      84.000 s Max latent heat flux   0.000E+00 W/m^2
FIRE:Time      84.500 s Average wind           0.124E+01 m/s
FIRE:Time      84.500 s Maximum wind           0.124E+01 m/s
FIRE:Time      84.500 s Fire area              0.000E+00 m^2
FIRE:Time      84.500 s Heat output            0.000E+00 W
FIRE:Time      84.500 s Max heat flux          0.000E+00 W/m^2
FIRE:Time      84.500 s Latent heat output     0.000E+00 W
FIRE:Time      84.500 s Max latent heat flux   0.000E+00 W/m^2
FIRE:Time      85.000 s Average wind           0.124E+01 m/s
FIRE:Time      85.000 s Maximum wind           0.124E+01 m/s
FIRE:Time      85.000 s Fire area              0.000E+00 m^2
FIRE:Time      85.000 s Heat output            0.000E+00 W
FIRE:Time      85.000 s Max heat flux          0.000E+00 W/m^2
FIRE:Time      85.000 s Latent heat output     0.000E+00 W
FIRE:Time      85.000 s Max latent heat flux   0.000E+00 W/m^2
FIRE:Time      85.500 s Average wind           0.124E+01 m/s
FIRE:Time      85.500 s Maximum wind           0.124E+01 m/s
FIRE:Time      85.500 s Fire area              0.000E+00 m^2
FIRE:Time      85.500 s Heat output            0.000E+00 W
FIRE:Time      85.500 s Max heat flux          0.000E+00 W/m^2
FIRE:Time      85.500 s Latent heat output     0.000E+00 W
FIRE:Time      85.500 s Max latent heat flux   0.000E+00 W/m^2
FIRE:Time      86.000 s Average wind           0.124E+01 m/s
FIRE:Time      86.000 s Maximum wind           0.124E+01 m/s
FIRE:Time      86.000 s Fire area              0.000E+00 m^2
FIRE:Time      86.000 s Heat output            0.000E+00 W
FIRE:Time      86.000 s Max heat flux          0.000E+00 W/m^2
FIRE:Time      86.000 s Latent heat output     0.000E+00 W
FIRE:Time      86.000 s Max latent heat flux   0.000E+00 W/m^2
FIRE:Time      86.500 s Average wind           0.124E+01 m/s
FIRE:Time      86.500 s Maximum wind           0.124E+01 m/s
FIRE:Time      86.500 s Fire area              0.000E+00 m^2
FIRE:Time      86.500 s Heat output            0.000E+00 W
FIRE:Time      86.500 s Max heat flux          0.000E+00 W/m^2
FIRE:Time      86.500 s Latent heat output     0.000E+00 W
FIRE:Time      86.500 s Max latent heat flux   0.000E+00 W/m^2
FIRE:Time      87.000 s Average wind           0.124E+01 m/s
FIRE:Time      87.000 s Maximum wind           0.124E+01 m/s
FIRE:Time      87.000 s Fire area              0.000E+00 m^2
FIRE:Time      87.000 s Heat output            0.000E+00 W
FIRE:Time      87.000 s Max heat flux          0.000E+00 W/m^2
FIRE:Time      87.000 s Latent heat output     0.000E+00 W
FIRE:Time      87.000 s Max latent heat flux   0.000E+00 W/m^2
FIRE:Time      87.500 s Average wind           0.124E+01 m/s
FIRE:Time      87.500 s Maximum wind           0.124E+01 m/s
FIRE:Time      87.500 s Fire area              0.000E+00 m^2
FIRE:Time      87.500 s Heat output            0.000E+00 W
FIRE:Time      87.500 s Max heat flux          0.000E+00 W/m^2
FIRE:Time      87.500 s Latent heat output     0.000E+00 W
FIRE:Time      87.500 s Max latent heat flux   0.000E+00 W/m^2
FIRE:Time      88.000 s Average wind           0.124E+01 m/s
FIRE:Time      88.000 s Maximum wind           0.124E+01 m/s
FIRE:Time      88.000 s Fire area              0.000E+00 m^2
FIRE:Time      88.000 s Heat output            0.000E+00 W
FIRE:Time      88.000 s Max heat flux          0.000E+00 W/m^2
FIRE:Time      88.000 s Latent heat output     0.000E+00 W
FIRE:Time      88.000 s Max latent heat flux   0.000E+00 W/m^2
FIRE:Time      88.500 s Average wind           0.124E+01 m/s
FIRE:Time      88.500 s Maximum wind           0.124E+01 m/s
FIRE:Time      88.500 s Fire area              0.000E+00 m^2
FIRE:Time      88.500 s Heat output            0.000E+00 W
FIRE:Time      88.500 s Max heat flux          0.000E+00 W/m^2
FIRE:Time      88.500 s Latent heat output     0.000E+00 W
FIRE:Time      88.500 s Max latent heat flux   0.000E+00 W/m^2
FIRE:Time      89.000 s Average wind           0.124E+01 m/s
FIRE:Time      89.000 s Maximum wind           0.124E+01 m/s
FIRE:Time      89.000 s Fire area              0.000E+00 m^2
FIRE:Time      89.000 s Heat output            0.000E+00 W
FIRE:Time      89.000 s Max heat flux          0.000E+00 W/m^2
FIRE:Time      89.000 s Latent heat output     0.000E+00 W
FIRE:Time      89.000 s Max latent heat flux   0.000E+00 W/m^2
FIRE:Time      89.500 s Average wind           0.124E+01 m/s
FIRE:Time      89.500 s Maximum wind           0.124E+01 m/s
FIRE:Time      89.500 s Fire area              0.000E+00 m^2
FIRE:Time      89.500 s Heat output            0.000E+00 W
FIRE:Time      89.500 s Max heat flux          0.000E+00 W/m^2
FIRE:Time      89.500 s Latent heat output     0.000E+00 W
FIRE:Time      89.500 s Max latent heat flux   0.000E+00 W/m^2
FIRE:Time      90.000 s Average wind           0.124E+01 m/s
FIRE:Time      90.000 s Maximum wind           0.124E+01 m/s
FIRE:Time      90.000 s Fire area              0.000E+00 m^2
FIRE:Time      90.000 s Heat output            0.000E+00 W
FIRE:Time      90.000 s Max heat flux          0.000E+00 W/m^2
FIRE:Time      90.000 s Latent heat output     0.000E+00 W
FIRE:Time      90.000 s Max latent heat flux   0.000E+00 W/m^2
FIRE:Time      90.500 s Average wind           0.124E+01 m/s
FIRE:Time      90.500 s Maximum wind           0.124E+01 m/s
FIRE:Time      90.500 s Fire area              0.000E+00 m^2
FIRE:Time      90.500 s Heat output            0.000E+00 W
FIRE:Time      90.500 s Max heat flux          0.000E+00 W/m^2
FIRE:Time      90.500 s Latent heat output     0.000E+00 W
FIRE:Time      90.500 s Max latent heat flux   0.000E+00 W/m^2
FIRE:Time      91.000 s Average wind           0.124E+01 m/s
FIRE:Time      91.000 s Maximum wind           0.124E+01 m/s
FIRE:Time      91.000 s Fire area              0.000E+00 m^2
FIRE:Time      91.000 s Heat output            0.000E+00 W
FIRE:Time      91.000 s Max heat flux          0.000E+00 W/m^2
FIRE:Time      91.000 s Latent heat output     0.000E+00 W
FIRE:Time      91.000 s Max latent heat flux   0.000E+00 W/m^2
FIRE:Time      91.500 s Average wind           0.124E+01 m/s
FIRE:Time      91.500 s Maximum wind           0.124E+01 m/s
FIRE:Time      91.500 s Fire area              0.000E+00 m^2
FIRE:Time      91.500 s Heat output            0.000E+00 W
FIRE:Time      91.500 s Max heat flux          0.000E+00 W/m^2
FIRE:Time      91.500 s Latent heat output     0.000E+00 W
FIRE:Time      91.500 s Max latent heat flux   0.000E+00 W/m^2
FIRE:Time      92.000 s Average wind           0.124E+01 m/s
FIRE:Time      92.000 s Maximum wind           0.124E+01 m/s
FIRE:Time      92.000 s Fire area              0.000E+00 m^2
FIRE:Time      92.000 s Heat output            0.000E+00 W
[...]
FIRE:Time    3577.000 s Fire area              0.468E+05 m^2
FIRE:Time    3577.000 s Heat output            0.154E+09 W
FIRE:Time    3577.000 s Max heat flux          0.113E+06 W/m^2
FIRE:Time    3577.000 s Latent heat output     0.164E+08 W
FIRE:Time    3577.000 s Max latent heat flux   0.120E+05 W/m^2
FIRE:Time    3577.500 s Average wind           0.123E+01 m/s
FIRE:Time    3577.500 s Maximum wind           0.191E+01 m/s
FIRE:Time    3577.500 s Fire area              0.468E+05 m^2
FIRE:Time    3577.500 s Heat output            0.154E+09 W
FIRE:Time    3577.500 s Max heat flux          0.116E+06 W/m^2
FIRE:Time    3577.500 s Latent heat output     0.164E+08 W
FIRE:Time    3577.500 s Max latent heat flux   0.123E+05 W/m^2
FIRE:Time    3578.000 s Average wind           0.123E+01 m/s
FIRE:Time    3578.000 s Maximum wind           0.191E+01 m/s
FIRE:Time    3578.000 s Fire area              0.468E+05 m^2
FIRE:Time    3578.000 s Heat output            0.156E+09 W
FIRE:Time    3578.000 s Max heat flux          0.127E+06 W/m^2
FIRE:Time    3578.000 s Latent heat output     0.165E+08 W
FIRE:Time    3578.000 s Max latent heat flux   0.134E+05 W/m^2
FIRE:Time    3578.500 s Average wind           0.123E+01 m/s
FIRE:Time    3578.500 s Maximum wind           0.191E+01 m/s
FIRE:Time    3578.500 s Fire area              0.468E+05 m^2
FIRE:Time    3578.500 s Heat output            0.155E+09 W
FIRE:Time    3578.500 s Max heat flux          0.131E+06 W/m^2
FIRE:Time    3578.500 s Latent heat output     0.165E+08 W
FIRE:Time    3578.500 s Max latent heat flux   0.139E+05 W/m^2
FIRE:Time    3579.000 s Average wind           0.123E+01 m/s
FIRE:Time    3579.000 s Maximum wind           0.191E+01 m/s
FIRE:Time    3579.000 s Fire area              0.468E+05 m^2
FIRE:Time    3579.000 s Heat output            0.156E+09 W
FIRE:Time    3579.000 s Max heat flux          0.134E+06 W/m^2
FIRE:Time    3579.000 s Latent heat output     0.165E+08 W
FIRE:Time    3579.000 s Max latent heat flux   0.142E+05 W/m^2
FIRE:Time    3579.500 s Average wind           0.123E+01 m/s
FIRE:Time    3579.500 s Maximum wind           0.191E+01 m/s
FIRE:Time    3579.500 s Fire area              0.468E+05 m^2
FIRE:Time    3579.500 s Heat output            0.157E+09 W
FIRE:Time    3579.500 s Max heat flux          0.136E+06 W/m^2
FIRE:Time    3579.500 s Latent heat output     0.166E+08 W
FIRE:Time    3579.500 s Max latent heat flux   0.144E+05 W/m^2
FIRE:Time    3580.000 s Average wind           0.123E+01 m/s
FIRE:Time    3580.000 s Maximum wind           0.191E+01 m/s
FIRE:Time    3580.000 s Fire area              0.468E+05 m^2
FIRE:Time    3580.000 s Heat output            0.156E+09 W
FIRE:Time    3580.000 s Max heat flux          0.138E+06 W/m^2
FIRE:Time    3580.000 s Latent heat output     0.166E+08 W
FIRE:Time    3580.000 s Max latent heat flux   0.147E+05 W/m^2
FIRE:Time    3580.500 s Average wind           0.123E+01 m/s
FIRE:Time    3580.500 s Maximum wind           0.191E+01 m/s
FIRE:Time    3580.500 s Fire area              0.468E+05 m^2
FIRE:Time    3580.500 s Heat output            0.157E+09 W
FIRE:Time    3580.500 s Max heat flux          0.140E+06 W/m^2
FIRE:Time    3580.500 s Latent heat output     0.166E+08 W
FIRE:Time    3580.500 s Max latent heat flux   0.149E+05 W/m^2
FIRE:Time    3581.000 s Average wind           0.123E+01 m/s
FIRE:Time    3581.000 s Maximum wind           0.191E+01 m/s
FIRE:Time    3581.000 s Fire area              0.468E+05 m^2
FIRE:Time    3581.000 s Heat output            0.155E+09 W
FIRE:Time    3581.000 s Max heat flux          0.142E+06 W/m^2
FIRE:Time    3581.000 s Latent heat output     0.165E+08 W
FIRE:Time    3581.000 s Max latent heat flux   0.151E+05 W/m^2
FIRE:Time    3581.500 s Average wind           0.123E+01 m/s
FIRE:Time    3581.500 s Maximum wind           0.191E+01 m/s
FIRE:Time    3581.500 s Fire area              0.468E+05 m^2
FIRE:Time    3581.500 s Heat output            0.156E+09 W
FIRE:Time    3581.500 s Max heat flux          0.144E+06 W/m^2
FIRE:Time    3581.500 s Latent heat output     0.165E+08 W
FIRE:Time    3581.500 s Max latent heat flux   0.153E+05 W/m^2
FIRE:Time    3582.000 s Average wind           0.123E+01 m/s
FIRE:Time    3582.000 s Maximum wind           0.191E+01 m/s
FIRE:Time    3582.000 s Fire area              0.469E+05 m^2
FIRE:Time    3582.000 s Heat output            0.155E+09 W
FIRE:Time    3582.000 s Max heat flux          0.146E+06 W/m^2
FIRE:Time    3582.000 s Latent heat output     0.165E+08 W
FIRE:Time    3582.000 s Max latent heat flux   0.155E+05 W/m^2
FIRE:Time    3582.500 s Average wind           0.123E+01 m/s
FIRE:Time    3582.500 s Maximum wind           0.191E+01 m/s
FIRE:Time    3582.500 s Fire area              0.469E+05 m^2
FIRE:Time    3582.500 s Heat output            0.156E+09 W
FIRE:Time    3582.500 s Max heat flux          0.148E+06 W/m^2
FIRE:Time    3582.500 s Latent heat output     0.165E+08 W
FIRE:Time    3582.500 s Max latent heat flux   0.157E+05 W/m^2
FIRE:Time    3583.000 s Average wind           0.123E+01 m/s
FIRE:Time    3583.000 s Maximum wind           0.191E+01 m/s
FIRE:Time    3583.000 s Fire area              0.469E+05 m^2
FIRE:Time    3583.000 s Heat output            0.156E+09 W
FIRE:Time    3583.000 s Max heat flux          0.150E+06 W/m^2
FIRE:Time    3583.000 s Latent heat output     0.165E+08 W
FIRE:Time    3583.000 s Max latent heat flux   0.159E+05 W/m^2
FIRE:Time    3583.500 s Average wind           0.123E+01 m/s
FIRE:Time    3583.500 s Maximum wind           0.191E+01 m/s
FIRE:Time    3583.500 s Fire area              0.469E+05 m^2
FIRE:Time    3583.500 s Heat output            0.156E+09 W
FIRE:Time    3583.500 s Max heat flux          0.151E+06 W/m^2
FIRE:Time    3583.500 s Latent heat output     0.165E+08 W
FIRE:Time    3583.500 s Max latent heat flux   0.161E+05 W/m^2
FIRE:Time    3584.000 s Average wind           0.123E+01 m/s
FIRE:Time    3584.000 s Maximum wind           0.191E+01 m/s
FIRE:Time    3584.000 s Fire area              0.469E+05 m^2
FIRE:Time    3584.000 s Heat output            0.156E+09 W
FIRE:Time    3584.000 s Max heat flux          0.153E+06 W/m^2
FIRE:Time    3584.000 s Latent heat output     0.165E+08 W
FIRE:Time    3584.000 s Max latent heat flux   0.162E+05 W/m^2
FIRE:Time    3584.500 s Average wind           0.123E+01 m/s
FIRE:Time    3584.500 s Maximum wind           0.191E+01 m/s
FIRE:Time    3584.500 s Fire area              0.469E+05 m^2
FIRE:Time    3584.500 s Heat output            0.156E+09 W
FIRE:Time    3584.500 s Max heat flux          0.155E+06 W/m^2
FIRE:Time    3584.500 s Latent heat output     0.166E+08 W
FIRE:Time    3584.500 s Max latent heat flux   0.164E+05 W/m^2
FIRE:Time    3585.000 s Average wind           0.123E+01 m/s
FIRE:Time    3585.000 s Maximum wind           0.191E+01 m/s
FIRE:Time    3585.000 s Fire area              0.469E+05 m^2
FIRE:Time    3585.000 s Heat output            0.156E+09 W
FIRE:Time    3585.000 s Max heat flux          0.156E+06 W/m^2
FIRE:Time    3585.000 s Latent heat output     0.166E+08 W
FIRE:Time    3585.000 s Max latent heat flux   0.166E+05 W/m^2
FIRE:Time    3585.500 s Average wind           0.123E+01 m/s
FIRE:Time    3585.500 s Maximum wind           0.191E+01 m/s
FIRE:Time    3585.500 s Fire area              0.469E+05 m^2
FIRE:Time    3585.500 s Heat output            0.156E+09 W
FIRE:Time    3585.500 s Max heat flux          0.157E+06 W/m^2
FIRE:Time    3585.500 s Latent heat output     0.166E+08 W
FIRE:Time    3585.500 s Max latent heat flux   0.167E+05 W/m^2
FIRE:Time    3586.000 s Average wind           0.123E+01 m/s
FIRE:Time    3586.000 s Maximum wind           0.191E+01 m/s
FIRE:Time    3586.000 s Fire area              0.469E+05 m^2
FIRE:Time    3586.000 s Heat output            0.156E+09 W
FIRE:Time    3586.000 s Max heat flux          0.159E+06 W/m^2
FIRE:Time    3586.000 s Latent heat output     0.166E+08 W
FIRE:Time    3586.000 s Max latent heat flux   0.169E+05 W/m^2
FIRE:Time    3586.500 s Average wind           0.123E+01 m/s
FIRE:Time    3586.500 s Maximum wind           0.191E+01 m/s
FIRE:Time    3586.500 s Fire area              0.469E+05 m^2
FIRE:Time    3586.500 s Heat output            0.156E+09 W
FIRE:Time    3586.500 s Max heat flux          0.160E+06 W/m^2
FIRE:Time    3586.500 s Latent heat output     0.166E+08 W
FIRE:Time    3586.500 s Max latent heat flux   0.170E+05 W/m^2
FIRE:Time    3587.000 s Average wind           0.123E+01 m/s
FIRE:Time    3587.000 s Maximum wind           0.191E+01 m/s
FIRE:Time    3587.000 s Fire area              0.469E+05 m^2
FIRE:Time    3587.000 s Heat output            0.156E+09 W
FIRE:Time    3587.000 s Max heat flux          0.161E+06 W/m^2
FIRE:Time    3587.000 s Latent heat output     0.166E+08 W
FIRE:Time    3587.000 s Max latent heat flux   0.171E+05 W/m^2
FIRE:Time    3587.500 s Average wind           0.123E+01 m/s
FIRE:Time    3587.500 s Maximum wind           0.191E+01 m/s
FIRE:Time    3587.500 s Fire area              0.469E+05 m^2
FIRE:Time    3587.500 s Heat output            0.157E+09 W
FIRE:Time    3587.500 s Max heat flux          0.163E+06 W/m^2
FIRE:Time    3587.500 s Latent heat output     0.166E+08 W
FIRE:Time    3587.500 s Max latent heat flux   0.173E+05 W/m^2
FIRE:Time    3588.000 s Average wind           0.123E+01 m/s
FIRE:Time    3588.000 s Maximum wind           0.191E+01 m/s
FIRE:Time    3588.000 s Fire area              0.469E+05 m^2
FIRE:Time    3588.000 s Heat output            0.157E+09 W
FIRE:Time    3588.000 s Max heat flux          0.164E+06 W/m^2
FIRE:Time    3588.000 s Latent heat output     0.166E+08 W
FIRE:Time    3588.000 s Max latent heat flux   0.174E+05 W/m^2
FIRE:Time    3588.500 s Average wind           0.123E+01 m/s
FIRE:Time    3588.500 s Maximum wind           0.191E+01 m/s
FIRE:Time    3588.500 s Fire area              0.470E+05 m^2
FIRE:Time    3588.500 s Heat output            0.157E+09 W
FIRE:Time    3588.500 s Max heat flux          0.165E+06 W/m^2
FIRE:Time    3588.500 s Latent heat output     0.167E+08 W
FIRE:Time    3588.500 s Max latent heat flux   0.175E+05 W/m^2
FIRE:Time    3589.000 s Average wind           0.123E+01 m/s
FIRE:Time    3589.000 s Maximum wind           0.191E+01 m/s
FIRE:Time    3589.000 s Fire area              0.470E+05 m^2
FIRE:Time    3589.000 s Heat output            0.157E+09 W
FIRE:Time    3589.000 s Max heat flux          0.166E+06 W/m^2
FIRE:Time    3589.000 s Latent heat output     0.166E+08 W
FIRE:Time    3589.000 s Max latent heat flux   0.176E+05 W/m^2
FIRE:Time    3589.500 s Average wind           0.123E+01 m/s
FIRE:Time    3589.500 s Maximum wind           0.191E+01 m/s
FIRE:Time    3589.500 s Fire area              0.470E+05 m^2
FIRE:Time    3589.500 s Heat output            0.157E+09 W
FIRE:Time    3589.500 s Max heat flux          0.167E+06 W/m^2
FIRE:Time    3589.500 s Latent heat output     0.167E+08 W
FIRE:Time    3589.500 s Max latent heat flux   0.177E+05 W/m^2
FIRE:Time    3590.000 s Average wind           0.123E+01 m/s
FIRE:Time    3590.000 s Maximum wind           0.191E+01 m/s
FIRE:Time    3590.000 s Fire area              0.470E+05 m^2
FIRE:Time    3590.000 s Heat output            0.157E+09 W
FIRE:Time    3590.000 s Max heat flux          0.168E+06 W/m^2
FIRE:Time    3590.000 s Latent heat output     0.166E+08 W
FIRE:Time    3590.000 s Max latent heat flux   0.178E+05 W/m^2
FIRE:Time    3590.500 s Average wind           0.123E+01 m/s
FIRE:Time    3590.500 s Maximum wind           0.191E+01 m/s
FIRE:Time    3590.500 s Fire area              0.470E+05 m^2
FIRE:Time    3590.500 s Heat output            0.157E+09 W
FIRE:Time    3590.500 s Max heat flux          0.169E+06 W/m^2
FIRE:Time    3590.500 s Latent heat output     0.167E+08 W
FIRE:Time    3590.500 s Max latent heat flux   0.179E+05 W/m^2
FIRE:Time    3591.000 s Average wind           0.123E+01 m/s
FIRE:Time    3591.000 s Maximum wind           0.191E+01 m/s
FIRE:Time    3591.000 s Fire area              0.470E+05 m^2
FIRE:Time    3591.000 s Heat output            0.157E+09 W
FIRE:Time    3591.000 s Max heat flux          0.170E+06 W/m^2
FIRE:Time    3591.000 s Latent heat output     0.166E+08 W
FIRE:Time    3591.000 s Max latent heat flux   0.180E+05 W/m^2
FIRE:Time    3591.500 s Average wind           0.123E+01 m/s
FIRE:Time    3591.500 s Maximum wind           0.191E+01 m/s
FIRE:Time    3591.500 s Fire area              0.470E+05 m^2
FIRE:Time    3591.500 s Heat output            0.170E+09 W
FIRE:Time    3591.500 s Max heat flux          0.460E+06 W/m^2
FIRE:Time    3591.500 s Latent heat output     0.180E+08 W
FIRE:Time    3591.500 s Max latent heat flux   0.488E+05 W/m^2
FIRE:Time    3592.000 s Average wind           0.123E+01 m/s
FIRE:Time    3592.000 s Maximum wind           0.191E+01 m/s
FIRE:Time    3592.000 s Fire area              0.470E+05 m^2
FIRE:Time    3592.000 s Heat output            0.160E+09 W
FIRE:Time    3592.000 s Max heat flux          0.161E+06 W/m^2
FIRE:Time    3592.000 s Latent heat output     0.170E+08 W
FIRE:Time    3592.000 s Max latent heat flux   0.171E+05 W/m^2
FIRE:Time    3592.500 s Average wind           0.123E+01 m/s
FIRE:Time    3592.500 s Maximum wind           0.191E+01 m/s
FIRE:Time    3592.500 s Fire area              0.470E+05 m^2
FIRE:Time    3592.500 s Heat output            0.157E+09 W
FIRE:Time    3592.500 s Max heat flux          0.162E+06 W/m^2
FIRE:Time    3592.500 s Latent heat output     0.166E+08 W
FIRE:Time    3592.500 s Max latent heat flux   0.172E+05 W/m^2
FIRE:Time    3593.000 s Average wind           0.123E+01 m/s
FIRE:Time    3593.000 s Maximum wind           0.191E+01 m/s
FIRE:Time    3593.000 s Fire area              0.470E+05 m^2
FIRE:Time    3593.000 s Heat output            0.156E+09 W
FIRE:Time    3593.000 s Max heat flux          0.163E+06 W/m^2
FIRE:Time    3593.000 s Latent heat output     0.166E+08 W
FIRE:Time    3593.000 s Max latent heat flux   0.173E+05 W/m^2
FIRE:Time    3593.500 s Average wind           0.123E+01 m/s
FIRE:Time    3593.500 s Maximum wind           0.191E+01 m/s
FIRE:Time    3593.500 s Fire area              0.470E+05 m^2
FIRE:Time    3593.500 s Heat output            0.157E+09 W
FIRE:Time    3593.500 s Max heat flux          0.164E+06 W/m^2
FIRE:Time    3593.500 s Latent heat output     0.166E+08 W
FIRE:Time    3593.500 s Max latent heat flux   0.174E+05 W/m^2
FIRE:Time    3594.000 s Average wind           0.123E+01 m/s
FIRE:Time    3594.000 s Maximum wind           0.191E+01 m/s
FIRE:Time    3594.000 s Fire area              0.470E+05 m^2
FIRE:Time    3594.000 s Heat output            0.157E+09 W
FIRE:Time    3594.000 s Max heat flux          0.165E+06 W/m^2
FIRE:Time    3594.000 s Latent heat output     0.166E+08 W
FIRE:Time    3594.000 s Max latent heat flux   0.175E+05 W/m^2
FIRE:Time    3594.500 s Average wind           0.123E+01 m/s
FIRE:Time    3594.500 s Maximum wind           0.191E+01 m/s
FIRE:Time    3594.500 s Fire area              0.470E+05 m^2
FIRE:Time    3594.500 s Heat output            0.157E+09 W
FIRE:Time    3594.500 s Max heat flux          0.165E+06 W/m^2
FIRE:Time    3594.500 s Latent heat output     0.166E+08 W
FIRE:Time    3594.500 s Max latent heat flux   0.176E+05 W/m^2
FIRE:Time    3595.000 s Average wind           0.123E+01 m/s
FIRE:Time    3595.000 s Maximum wind           0.191E+01 m/s
FIRE:Time    3595.000 s Fire area              0.471E+05 m^2
FIRE:Time    3595.000 s Heat output            0.157E+09 W
FIRE:Time    3595.000 s Max heat flux          0.166E+06 W/m^2
FIRE:Time    3595.000 s Latent heat output     0.166E+08 W
FIRE:Time    3595.000 s Max latent heat flux   0.176E+05 W/m^2
FIRE:Time    3595.500 s Average wind           0.123E+01 m/s
FIRE:Time    3595.500 s Maximum wind           0.191E+01 m/s
FIRE:Time    3595.500 s Fire area              0.471E+05 m^2
FIRE:Time    3595.500 s Heat output            0.159E+09 W
FIRE:Time    3595.500 s Max heat flux          0.167E+06 W/m^2
FIRE:Time    3595.500 s Latent heat output     0.169E+08 W
FIRE:Time    3595.500 s Max latent heat flux   0.177E+05 W/m^2
FIRE:Time    3596.000 s Average wind           0.123E+01 m/s
FIRE:Time    3596.000 s Maximum wind           0.191E+01 m/s
FIRE:Time    3596.000 s Fire area              0.471E+05 m^2
FIRE:Time    3596.000 s Heat output            0.156E+09 W
FIRE:Time    3596.000 s Max heat flux          0.168E+06 W/m^2
FIRE:Time    3596.000 s Latent heat output     0.166E+08 W
FIRE:Time    3596.000 s Max latent heat flux   0.178E+05 W/m^2
FIRE:Time    3596.500 s Average wind           0.123E+01 m/s
FIRE:Time    3596.500 s Maximum wind           0.191E+01 m/s
FIRE:Time    3596.500 s Fire area              0.471E+05 m^2
FIRE:Time    3596.500 s Heat output            0.157E+09 W
FIRE:Time    3596.500 s Max heat flux          0.168E+06 W/m^2
FIRE:Time    3596.500 s Latent heat output     0.166E+08 W
FIRE:Time    3596.500 s Max latent heat flux   0.179E+05 W/m^2
FIRE:Time    3597.000 s Average wind           0.123E+01 m/s
FIRE:Time    3597.000 s Maximum wind           0.191E+01 m/s
FIRE:Time    3597.000 s Fire area              0.471E+05 m^2
FIRE:Time    3597.000 s Heat output            0.157E+09 W
FIRE:Time    3597.000 s Max heat flux          0.169E+06 W/m^2
FIRE:Time    3597.000 s Latent heat output     0.166E+08 W
FIRE:Time    3597.000 s Max latent heat flux   0.179E+05 W/m^2
FIRE:Time    3597.500 s Average wind           0.123E+01 m/s
FIRE:Time    3597.500 s Maximum wind           0.191E+01 m/s
FIRE:Time    3597.500 s Fire area              0.471E+05 m^2
FIRE:Time    3597.500 s Heat output            0.157E+09 W
FIRE:Time    3597.500 s Max heat flux          0.170E+06 W/m^2
FIRE:Time    3597.500 s Latent heat output     0.166E+08 W
FIRE:Time    3597.500 s Max latent heat flux   0.180E+05 W/m^2
FIRE:Time    3598.000 s Average wind           0.123E+01 m/s
FIRE:Time    3598.000 s Maximum wind           0.191E+01 m/s
FIRE:Time    3598.000 s Fire area              0.471E+05 m^2
FIRE:Time    3598.000 s Heat output            0.157E+09 W
FIRE:Time    3598.000 s Max heat flux          0.170E+06 W/m^2
FIRE:Time    3598.000 s Latent heat output     0.166E+08 W
FIRE:Time    3598.000 s Max latent heat flux   0.181E+05 W/m^2
FIRE:Time    3598.500 s Average wind           0.123E+01 m/s
FIRE:Time    3598.500 s Maximum wind           0.191E+01 m/s
FIRE:Time    3598.500 s Fire area              0.471E+05 m^2
FIRE:Time    3598.500 s Heat output            0.157E+09 W
FIRE:Time    3598.500 s Max heat flux          0.171E+06 W/m^2
FIRE:Time    3598.500 s Latent heat output     0.166E+08 W
FIRE:Time    3598.500 s Max latent heat flux   0.181E+05 W/m^2
FIRE:Time    3599.000 s Average wind           0.123E+01 m/s
FIRE:Time    3599.000 s Maximum wind           0.191E+01 m/s
FIRE:Time    3599.000 s Fire area              0.471E+05 m^2
FIRE:Time    3599.000 s Heat output            0.157E+09 W
FIRE:Time    3599.000 s Max heat flux          0.172E+06 W/m^2
FIRE:Time    3599.000 s Latent heat output     0.166E+08 W
FIRE:Time    3599.000 s Max latent heat flux   0.182E+05 W/m^2
FIRE:Time    3599.500 s Average wind           0.123E+01 m/s
FIRE:Time    3599.500 s Maximum wind           0.191E+01 m/s
FIRE:Time    3599.500 s Fire area              0.471E+05 m^2
FIRE:Time    3599.500 s Heat output            0.157E+09 W
FIRE:Time    3599.500 s Max heat flux          0.172E+06 W/m^2
FIRE:Time    3599.500 s Latent heat output     0.166E+08 W
FIRE:Time    3599.500 s Max latent heat flux   0.183E+05 W/m^2
FIRE:Time    3600.000 s Average wind           0.123E+01 m/s
FIRE:Time    3600.000 s Maximum wind           0.191E+01 m/s
FIRE:Time    3600.000 s Fire area              0.471E+05 m^2
FIRE:Time    3600.000 s Heat output            0.168E+09 W
FIRE:Time    3600.000 s Max heat flux          0.398E+06 W/m^2
FIRE:Time    3600.000 s Latent heat output     0.179E+08 W
FIRE:Time    3600.000 s Max latent heat flux   0.422E+05 W/m^2
d01 2006-01-01_10:00:00 wrf: SUCCESS COMPLETE WRF
